AS4
  CCTOOLS-0919241030

 54 57  0  0  1  0  0  0  0  0999 V2000
   -0.8930   -1.3100    0.7440 C   0  0  0  0  0
   -1.1740    1.1040    1.2670 C   0  0  0  0  0
   -1.8380    0.2420   -0.9570 C   0  0  0  0  0
    2.3940    0.4420   -0.2460 C   0  0  0  0  0
    3.2230   -0.8040   -0.3110 C   0  0  0  0  0
    4.5360   -0.8240   -0.0690 C   0  0  0  0  0
    5.2360    0.4090    0.3070 C   0  0  0  0  0
    2.0000    0.8230   -1.6750 C   0  0  0  0  0
   -3.1850   -2.0660    0.7730 C   0  0  0  0  0
   -3.1640   -0.5330    0.9960 C   0  0  0  0  0
   -4.2600    0.1260    0.2000 C   0  0  0  0  0
   -4.8060    1.4630    0.6320 C   0  0  0  0  0
   -1.7810   -2.4490    0.2310 C   0  0  0  0  0
   -1.7890   -0.0630    0.5180 C   0  0  0  0  0
    0.3970   -1.0820   -0.0240 C   0  0  0  0  0
    1.1080    0.1560    0.5380 C   0  0  0  0  0
    0.1890    1.3920    0.6180 C   0  0  0  0  0
   -0.0160    1.7890   -0.7390 O   0  0  0  0  0
   -1.6030   -0.6270   -1.7620 O   0  0  0  0  0
    6.2960    0.3880    0.8950 O   0  0  0  0  0
    4.5640    1.7130   -0.0790 C   0  0  0  0  0
    3.1070    1.6290    0.3760 C   0  0  0  0  0
    2.5610   -2.1020   -0.7340 C   0  0  0  0  0
    1.3020   -2.3100    0.1100 C   0  0  0  0  0
   -4.7020   -0.4170   -0.7840 O   0  0  0  0  0
   -5.8280    1.8760   -0.2770 O   0  0  0  0  0
   -0.6830   -1.4410    1.8060 H   0  0  0  0  0
   -1.8180    1.9800    1.1840 H   0  0  0  0  0
   -1.0380    0.8410    2.3160 H   0  0  0  0  0
   -2.0830    1.2380   -1.2950 H   0  0  0  0  0
    5.0810   -1.7550   -0.1350 H   0  0  0  0  0
    2.8760    0.7670   -2.3210 H   0  0  0  0  0
    1.2370    0.1340   -2.0370 H   0  0  0  0  0
    1.6060    1.8390   -1.6840 H   0  0  0  0  0
   -3.9520   -2.3270    0.0430 H   0  0  0  0  0
   -3.3750   -2.5790    1.7150 H   0  0  0  0  0
   -3.2780   -0.3040    2.0560 H   0  0  0  0  0
   -5.2230    1.3780    1.6350 H   0  0  0  0  0
   -4.0020    2.2000    0.6340 H   0  0  0  0  0
   -1.7830   -2.4760   -0.8590 H   0  0  0  0  0
   -1.4570   -3.4050    0.6410 H   0  0  0  0  0
    0.1770   -0.8950   -1.0750 H   0  0  0  0  0
    1.3810   -0.1500    1.5480 H   0  0  0  0  0
    0.6740    2.2060    1.1570 H   0  0  0  0  0
   -0.5650    2.5850   -0.7180 H   0  0  0  0  0
    4.6070    1.8460   -1.1600 H   0  0  0  0  0
    5.0600    2.5460    0.4190 H   0  0  0  0  0
    2.5910    2.5450    0.0890 H   0  0  0  0  0
    3.0790    1.5310    1.4620 H   0  0  0  0  0
    2.2890   -2.0470   -1.7880 H   0  0  0  0  0
    3.2490   -2.9320   -0.5750 H   0  0  0  0  0
    0.7700   -3.1950   -0.2410 H   0  0  0  0  0
    1.5820   -2.4440    1.1550 H   0  0  0  0  0
   -6.1490    2.7340    0.0350 H   0  0  0  0  0
  1 13  1  0  0  0
  1 14  1  0  0  0
  1 15  1  0  0  0
  1 27  1  0  0  0
  2 14  1  0  0  0
  2 17  1  0  0  0
  2 28  1  0  0  0
  2 29  1  0  0  0
  3 14  1  0  0  0
  3 19  2  0  0  0
  3 30  1  0  0  0
  4  5  1  0  0  0
  4  8  1  0  0  0
  4 16  1  0  0  0
  4 22  1  0  0  0
  5  6  2  0  0  0
  5 23  1  0  0  0
  6  7  1  0  0  0
  6 31  1  0  0  0
  7 20  2  0  0  0
  7 21  1  0  0  0
  8 32  1  0  0  0
  8 33  1  0  0  0
  8 34  1  0  0  0
  9 10  1  0  0  0
  9 13  1  0  0  0
  9 35  1  0  0  0
  9 36  1  0  0  0
 10 11  1  0  0  0
 10 14  1  0  0  0
 10 37  1  0  0  0
 11 12  1  0  0  0
 11 25  2  0  0  0
 12 26  1  0  0  0
 12 38  1  0  0  0
 12 39  1  0  0  0
 13 40  1  0  0  0
 13 41  1  0  0  0
 15 16  1  0  0  0
 15 24  1  0  0  0
 15 42  1  0  0  0
 16 17  1  0  0  0
 16 43  1  0  0  0
 17 18  1  0  0  0
 17 44  1  0  0  0
 18 45  1  0  0  0
 21 22  1  0  0  0
 21 46  1  0  0  0
 21 47  1  0  0  0
 22 48  1  0  0  0
 22 49  1  0  0  0
 23 24  1  0  0  0
 23 50  1  0  0  0
 23 51  1  0  0  0
 24 52  1  0  0  0
 24 53  1  0  0  0
 26 54  1  0  0  0
M  END
$$$$
