NFH
  CCTOOLS-0919241039

 51 50  0  0  1  0  0  0  0  0999 V2000
   -0.1430    0.3810    0.5440 C   0  0  0  0  0
   -3.3310   -1.4950   -0.1680 N   0  0  0  0  0
    0.0510    0.8470    1.6470 O   0  0  0  0  0
    3.2280    0.3280   -0.8670 C   0  0  0  0  0
    0.9010    0.0490   -0.2400 N   0  0  0  0  0
    2.9470   -0.0950   -1.9680 O   0  0  0  0  0
    4.4010    0.9620   -0.6680 N   0  0  0  0  0
   -1.5520    0.1690    0.0540 C   0  0  0  0  0
   -2.4820    1.1870    0.7170 C   0  0  0  0  0
   -2.1180    2.5950    0.2430 C   0  0  0  0  0
   -3.4550   -1.7240   -1.4910 C   0  0  0  0  0
   -4.5500   -1.9290   -1.9710 O   0  0  0  0  0
   -2.0090   -1.2470    0.4110 C   0  0  0  0  0
   -4.4790   -1.4940    0.6610 O   0  0  0  0  0
    2.2670    0.1440    0.2790 C   0  0  0  0  0
    2.6160   -1.1390    1.0360 C   0  0  0  0  0
   -2.4090    2.7210   -1.2540 C   0  0  0  0  0
   -2.9490    3.6240    1.0120 C   0  0  0  0  0
    2.5670   -2.3280    0.0750 C   0  0  0  0  0
    4.0230   -1.0170    1.6250 C   0  0  0  0  0
    1.6070   -1.3540    2.1660 C   0  0  0  0  0
    5.3870    1.0350   -1.7490 C   0  0  0  0  0
    0.7470   -0.2550   -1.1490 H   0  0  0  0  0
    4.5920    1.3700    0.1910 H   0  0  0  0  0
   -1.5840    0.2980   -1.0280 H   0  0  0  0  0
   -3.5140    0.9670    0.4440 H   0  0  0  0  0
   -2.3720    1.1280    1.8000 H   0  0  0  0  0
   -1.0580    2.7760    0.4230 H   0  0  0  0  0
   -2.5790   -1.7250   -2.1230 H   0  0  0  0  0
   -2.0620   -1.3490    1.4950 H   0  0  0  0  0
   -1.2960   -1.9700    0.0130 H   0  0  0  0  0
   -4.2900   -1.3210    1.5930 H   0  0  0  0  0
    2.3400    0.9960    0.9550 H   0  0  0  0  0
   -2.1500    3.7240   -1.5920 H   0  0  0  0  0
   -1.8170    1.9880   -1.8020 H   0  0  0  0  0
   -3.4690    2.5400   -1.4340 H   0  0  0  0  0
   -2.7410    3.5340    2.0790 H   0  0  0  0  0
   -2.6890    4.6270    0.6750 H   0  0  0  0  0
   -4.0080    3.4420    0.8320 H   0  0  0  0  0
    3.2860   -2.1740   -0.7300 H   0  0  0  0  0
    2.8150   -3.2420    0.6150 H   0  0  0  0  0
    1.5650   -2.4150   -0.3450 H   0  0  0  0  0
    4.0560   -0.1720    2.3140 H   0  0  0  0  0
    4.2730   -1.9330    2.1610 H   0  0  0  0  0
    4.7410   -0.8590    0.8210 H   0  0  0  0  0
    0.6050   -1.4410    1.7470 H   0  0  0  0  0
    1.8550   -2.2680    2.7060 H   0  0  0  0  0
    1.6420   -0.5070    2.8510 H   0  0  0  0  0
    6.2650    1.5820   -1.4040 H   0  0  0  0  0
    5.6800    0.0270   -2.0420 H   0  0  0  0  0
    4.9510    1.5510   -2.6040 H   0  0  0  0  0
  1  8  1  0  0  0
  2 14  1  0  0  0
  2 11  1  0  0  0
  3  1  2  0  0  0
  4 15  1  0  0  0
  5  1  1  0  0  0
  5 23  1  0  0  0
  6  4  2  0  0  0
  7  4  1  0  0  0
  7 24  1  0  0  0
  8 13  1  0  0  0
  8 25  1  0  0  0
  9  8  1  0  0  0
  9 26  1  0  0  0
  9 27  1  0  0  0
 10  9  1  0  0  0
 10 17  1  0  0  0
 10 28  1  0  0  0
 11 12  2  0  0  0
 11 29  1  0  0  0
 13  2  1  0  0  0
 13 30  1  0  0  0
 13 31  1  0  0  0
 14 32  1  0  0  0
 15  5  1  0  0  0
 15 16  1  0  0  0
 15 33  1  0  0  0
 16 20  1  0  0  0
 17 34  1  0  0  0
 17 35  1  0  0  0
 17 36  1  0  0  0
 18 10  1  0  0  0
 18 37  1  0  0  0
 18 38  1  0  0  0
 18 39  1  0  0  0
 19 16  1  0  0  0
 19 40  1  0  0  0
 19 41  1  0  0  0
 19 42  1  0  0  0
 20 43  1  0  0  0
 20 44  1  0  0  0
 20 45  1  0  0  0
 21 16  1  0  0  0
 21 46  1  0  0  0
 21 47  1  0  0  0
 21 48  1  0  0  0
 22  7  1  0  0  0
 22 49  1  0  0  0
 22 50  1  0  0  0
 22 51  1  0  0  0
M  END
$$$$
