MOL000449_docked
     RDKit          3D

 78 81  0  0  0  0  0  0  0  0999 V2000
   20.8930   62.6650   18.0410 C   0  0  0  0  0  0  0  0  0  0  0  0
   19.9070   63.8010   17.7900 C   0  0  0  0  0  0  0  0  0  0  0  0
   19.6590   64.0710   16.2900 C   0  0  2  0  0  0  0  0  0  0  0  0
   19.2940   65.5240   16.0650 C   0  0  0  0  0  0  0  0  0  0  0  0
   19.3520   66.4660   17.0220 C   0  0  0  0  0  0  0  0  0  0  0  0
   18.9710   67.9180   16.8030 C   0  0  1  0  0  0  0  0  0  0  0  0
   17.9790   67.9700   15.6390 C   0  0  0  0  0  0  0  0  0  0  0  0
   18.4130   68.5310   18.1140 C   0  0  1  0  0  0  0  0  0  0  0  0
   18.6150   67.5820   19.3320 C   0  0  0  0  0  0  0  0  0  0  0  0
   18.7820   68.4690   20.5730 C   0  0  0  0  0  0  0  0  0  0  0  0
   18.4430   69.8650   20.0730 C   0  0  1  0  0  0  0  0  0  0  0  0
   18.8850   71.0610   20.9230 C   0  0  2  0  0  0  0  0  0  0  0  0
   18.3040   70.9660   22.3420 C   0  0  0  0  0  0  0  0  0  0  0  0
   18.3730   72.2510   23.1060 C   0  0  0  0  0  0  0  0  0  0  0  0
   18.6460   73.4520   22.5640 C   0  0  0  0  0  0  0  0  0  0  0  0
   18.7140   74.6830   23.4430 C   0  0  0  0  0  0  0  0  0  0  0  0
   17.8700   75.8340   22.8930 C   0  0  1  0  0  0  0  0  0  0  0  0
   18.0820   77.0100   23.6730 O   0  0  0  0  0  0  0  0  0  0  0  0
   18.2150   76.1280   21.4350 C   0  0  0  0  0  0  0  0  0  0  0  0
   18.0660   74.8790   20.5680 C   0  0  0  0  0  0  0  0  0  0  0  0
   18.8910   73.6510   21.0610 C   0  0  1  0  0  0  0  0  0  0  0  0
   20.3980   73.9310   20.8550 C   0  0  0  0  0  0  0  0  0  0  0  0
   18.4240   72.3800   20.2430 C   0  0  1  0  0  0  0  0  0  0  0  0
   18.7880   72.4270   18.7370 C   0  0  0  0  0  0  0  0  0  0  0  0
   18.4130   71.1510   17.9640 C   0  0  0  0  0  0  0  0  0  0  0  0
   18.9890   69.8870   18.6250 C   0  0  2  0  0  0  0  0  0  0  0  0
   20.5340   69.8970   18.5440 C   0  0  0  0  0  0  0  0  0  0  0  0
   18.6060   63.0850   15.7010 C   0  0  0  0  0  0  0  0  0  0  0  0
   17.8880   62.2990   16.8060 C   0  0  0  0  0  0  0  0  0  0  0  0
   19.1650   62.1110   14.6580 C   0  0  0  0  0  0  0  0  0  0  0  0
   21.0182   62.5208   19.1243 H   0  0  0  0  0  0  0  0  0  0  0  0
   20.5077   61.7387   17.5899 H   0  0  0  0  0  0  0  0  0  0  0  0
   21.8643   62.9161   17.5899 H   0  0  0  0  0  0  0  0  0  0  0  0
   18.9477   63.5419   18.2619 H   0  0  0  0  0  0  0  0  0  0  0  0
   20.3449   64.7146   18.2185 H   0  0  0  0  0  0  0  0  0  0  0  0
   20.5932   63.8838   15.7403 H   0  0  0  0  0  0  0  0  0  0  0  0
   18.9624   65.8255   15.0604 H   0  0  0  0  0  0  0  0  0  0  0  0
   19.6960   66.1665   18.0230 H   0  0  0  0  0  0  0  0  0  0  0  0
   19.8467   68.5288   16.5382 H   0  0  0  0  0  0  0  0  0  0  0  0
   16.9535   68.0238   16.0333 H   0  0  0  0  0  0  0  0  0  0  0  0
   18.1822   68.8587   15.0235 H   0  0  0  0  0  0  0  0  0  0  0  0
   18.0882   67.0649   15.0235 H   0  0  0  0  0  0  0  0  0  0  0  0
   17.3734   68.6945   17.7937 H   0  0  0  0  0  0  0  0  0  0  0  0
   17.7381   66.9286   19.4506 H   0  0  0  0  0  0  0  0  0  0  0  0
   19.4976   66.9417   19.1870 H   0  0  0  0  0  0  0  0  0  0  0  0
   18.0903   68.1603   21.3707 H   0  0  0  0  0  0  0  0  0  0  0  0
   19.7912   68.4069   21.0062 H   0  0  0  0  0  0  0  0  0  0  0  0
   17.3559   70.0198   20.1387 H   0  0  0  0  0  0  0  0  0  0  0  0
   19.9822   71.0536   21.0012 H   0  0  0  0  0  0  0  0  0  0  0  0
   17.2493   70.6630   22.2662 H   0  0  0  0  0  0  0  0  0  0  0  0
   18.9124   70.2320   22.8907 H   0  0  0  0  0  0  0  0  0  0  0  0
   18.1870   72.2108   24.1894 H   0  0  0  0  0  0  0  0  0  0  0  0
   18.3464   74.4223   24.4464 H   0  0  0  0  0  0  0  0  0  0  0  0
   19.7614   75.0177   23.4744 H   0  0  0  0  0  0  0  0  0  0  0  0
   16.8135   75.5327   22.9486 H   0  0  0  0  0  0  0  0  0  0  0  0
   17.6400   76.9130   24.5310 H   0  0  0  0  0  0  0  0  0  0  0  0
   17.5393   76.9094   21.0572 H   0  0  0  0  0  0  0  0  0  0  0  0
   19.2617   76.4625   21.3860 H   0  0  0  0  0  0  0  0  0  0  0  0
   17.0032   74.5957   20.5524 H   0  0  0  0  0  0  0  0  0  0  0  0
   18.4548   75.1394   19.5725 H   0  0  0  0  0  0  0  0  0  0  0  0
   20.8911   74.0226   21.8340 H   0  0  0  0  0  0  0  0  0  0  0  0
   20.8514   73.1017   20.2922 H   0  0  0  0  0  0  0  0  0  0  0  0
   20.5233   74.8678   20.2922 H   0  0  0  0  0  0  0  0  0  0  0  0
   17.3244   72.4000   20.2655 H   0  0  0  0  0  0  0  0  0  0  0  0
   18.2599   73.2766   18.2796 H   0  0  0  0  0  0  0  0  0  0  0  0
   19.8818   72.5268   18.6763 H   0  0  0  0  0  0  0  0  0  0  0  0
   17.3168   71.0658   17.9296 H   0  0  0  0  0  0  0  0  0  0  0  0
   18.8378   71.2292   16.9523 H   0  0  0  0  0  0  0  0  0  0  0  0
   20.9544   69.8997   19.5605 H   0  0  0  0  0  0  0  0  0  0  0  0
   20.8788   69.0011   18.0070 H   0  0  0  0  0  0  0  0  0  0  0  0
   20.8672   70.7973   18.0070 H   0  0  0  0  0  0  0  0  0  0  0  0
   17.8871   63.7316   15.1766 H   0  0  0  0  0  0  0  0  0  0  0  0
   18.2201   62.6626   17.7896 H   0  0  0  0  0  0  0  0  0  0  0  0
   16.8014   62.4412   16.7103 H   0  0  0  0  0  0  0  0  0  0  0  0
   18.1277   61.2297   16.7103 H   0  0  0  0  0  0  0  0  0  0  0  0
   19.6500   61.2659   15.1684 H   0  0  0  0  0  0  0  0  0  0  0  0
   18.3441   61.7370   14.0285 H   0  0  0  0  0  0  0  0  0  0  0  0
   19.9021   62.6311   14.0285 H   0  0  0  0  0  0  0  0  0  0  0  0
  1  2  1  0
  2  3  1  0
  3  4  1  0
  4  5  2  0
  5  6  1  0
  6  7  1  0
  6  8  1  0
  8  9  1  0
  9 10  1  0
 10 11  1  0
 11 12  1  0
 12 13  1  0
 13 14  1  0
 14 15  2  0
 15 16  1  0
 16 17  1  0
 17 18  1  0
 17 19  1  0
 19 20  1  0
 20 21  1  0
 21 22  1  1
 21 23  1  0
 23 24  1  0
 24 25  1  0
 25 26  1  0
 26 27  1  1
  3 28  1  0
 28 29  1  0
 28 30  1  0
 26  8  1  0
 26 11  1  0
 23 12  1  0
 21 15  1  0
  1 31  1  0
  1 32  1  0
  1 33  1  0
  2 34  1  0
  2 35  1  0
  3 36  1  6
  4 37  1  0
  5 38  1  0
  6 39  1  6
  7 40  1  0
  7 41  1  0
  7 42  1  0
  8 43  1  6
  9 44  1  0
  9 45  1  0
 10 46  1  0
 10 47  1  0
 11 48  1  6
 12 49  1  1
 13 50  1  0
 13 51  1  0
 14 52  1  0
 16 53  1  0
 16 54  1  0
 17 55  1  6
 18 56  1  0
 19 57  1  0
 19 58  1  0
 20 59  1  0
 20 60  1  0
 22 61  1  0
 22 62  1  0
 22 63  1  0
 23 64  1  6
 24 65  1  0
 24 66  1  0
 25 67  1  0
 25 68  1  0
 27 69  1  0
 27 70  1  0
 27 71  1  0
 28 72  1  0
 29 73  1  0
 29 74  1  0
 29 75  1  0
 30 76  1  0
 30 77  1  0
 30 78  1  0
M  END
>  <meeko>  (1) 
{"is_sidechain": [false], "free_energy": -2.416, "intermolecular_energy": -3.192, "internal_energy": -0.846}

$$$$
MOL000449_docked
     RDKit          3D

 78 81  0  0  0  0  0  0  0  0999 V2000
   17.7850   61.8420   16.1290 C   0  0  0  0  0  0  0  0  0  0  0  0
   18.9550   62.7560   15.7830 C   0  0  0  0  0  0  0  0  0  0  0  0
   19.1790   63.8780   16.8210 C   0  0  2  0  0  0  0  0  0  0  0  0
   19.3630   65.2130   16.1290 C   0  0  0  0  0  0  0  0  0  0  0  0
   18.9870   66.3880   16.6590 C   0  0  0  0  0  0  0  0  0  0  0  0
   19.1540   67.7240   15.9600 C   0  0  1  0  0  0  0  0  0  0  0  0
   17.7700   68.1910   15.5070 C   0  0  0  0  0  0  0  0  0  0  0  0
   19.8690   68.7350   16.8950 C   0  0  1  0  0  0  0  0  0  0  0  0
   20.6830   69.7930   16.0920 C   0  0  0  0  0  0  0  0  0  0  0  0
   20.6800   71.0860   16.9180 C   0  0  0  0  0  0  0  0  0  0  0  0
   20.0760   70.6680   18.2500 C   0  0  1  0  0  0  0  0  0  0  0  0
   19.5480   71.7670   19.1780 C   0  0  2  0  0  0  0  0  0  0  0  0
   20.6570   72.7770   19.5140 C   0  0  0  0  0  0  0  0  0  0  0  0
   20.3380   73.6510   20.6850 C   0  0  0  0  0  0  0  0  0  0  0  0
   19.3340   73.4320   21.5550 C   0  0  0  0  0  0  0  0  0  0  0  0
   19.0910   74.4020   22.6920 C   0  0  0  0  0  0  0  0  0  0  0  0
   18.9680   73.6930   24.0420 C   0  0  1  0  0  0  0  0  0  0  0  0
   18.5980   74.6290   25.0530 O   0  0  0  0  0  0  0  0  0  0  0  0
   17.9340   72.5720   23.9880 C   0  0  0  0  0  0  0  0  0  0  0  0
   18.2530   71.5760   22.8740 C   0  0  0  0  0  0  0  0  0  0  0  0
   18.4000   72.2170   21.4600 C   0  0  1  0  0  0  0  0  0  0  0  0
   17.0170   72.7140   20.9760 C   0  0  0  0  0  0  0  0  0  0  0  0
   18.9960   71.1260   20.4820 C   0  0  1  0  0  0  0  0  0  0  0  0
   18.0400   69.9400   20.1980 C   0  0  0  0  0  0  0  0  0  0  0  0
   18.5860   68.9280   19.1760 C   0  0  0  0  0  0  0  0  0  0  0  0
   19.0160   69.6080   17.8650 C   0  0  2  0  0  0  0  0  0  0  0  0
   17.7830   70.1990   17.1390 C   0  0  0  0  0  0  0  0  0  0  0  0
   20.3490   63.5320   17.7890 C   0  0  0  0  0  0  0  0  0  0  0  0
   21.0600   62.2370   17.3760 C   0  0  0  0  0  0  0  0  0  0  0  0
   19.9460   63.4470   19.2650 C   0  0  0  0  0  0  0  0  0  0  0  0
   17.6891   61.7671   17.2222 H   0  0  0  0  0  0  0  0  0  0  0  0
   16.8579   62.2575   15.7072 H   0  0  0  0  0  0  0  0  0  0  0  0
   17.9638   60.8419   15.7072 H   0  0  0  0  0  0  0  0  0  0  0  0
   19.8690   62.1467   15.7242 H   0  0  0  0  0  0  0  0  0  0  0  0
   18.7186   63.2405   14.8241 H   0  0  0  0  0  0  0  0  0  0  0  0
   18.2791   63.9611   17.4482 H   0  0  0  0  0  0  0  0  0  0  0  0
   19.8321   65.2202   15.1341 H   0  0  0  0  0  0  0  0  0  0  0  0
   18.5306   66.3815   17.6598 H   0  0  0  0  0  0  0  0  0  0  0  0
   19.7961   67.6356   15.0713 H   0  0  0  0  0  0  0  0  0  0  0  0
   17.1471   68.4012   16.3889 H   0  0  0  0  0  0  0  0  0  0  0  0
   17.8709   69.1049   14.9031 H   0  0  0  0  0  0  0  0  0  0  0  0
   17.2966   67.4029   14.9031 H   0  0  0  0  0  0  0  0  0  0  0  0
   20.4562   68.0242   17.4949 H   0  0  0  0  0  0  0  0  0  0  0  0
   21.7150   69.4422   15.9439 H   0  0  0  0  0  0  0  0  0  0  0  0
   20.2368   69.9605   15.1006 H   0  0  0  0  0  0  0  0  0  0  0  0
   21.7034   71.4657   17.0543 H   0  0  0  0  0  0  0  0  0  0  0  0
   20.1176   71.8976   16.4333 H   0  0  0  0  0  0  0  0  0  0  0  0
   20.8722   70.2813   18.9031 H   0  0  0  0  0  0  0  0  0  0  0  0
   18.7384   72.3052   18.6634 H   0  0  0  0  0  0  0  0  0  0  0  0
   21.5787   72.2196   19.7373 H   0  0  0  0  0  0  0  0  0  0  0  0
   20.7673   73.4365   18.6406 H   0  0  0  0  0  0  0  0  0  0  0  0
   20.9694   74.5370   20.8472 H   0  0  0  0  0  0  0  0  0  0  0  0
   19.9317   75.1098   22.7392 H   0  0  0  0  0  0  0  0  0  0  0  0
   18.1408   74.9203   22.4957 H   0  0  0  0  0  0  0  0  0  0  0  0
   19.9473   73.2528   24.2811 H   0  0  0  0  0  0  0  0  0  0  0  0
   18.5520   74.1780   25.9100 H   0  0  0  0  0  0  0  0  0  0  0  0
   17.9292   72.0421   24.9519 H   0  0  0  0  0  0  0  0  0  0  0  0
   16.9491   73.0175   23.7841 H   0  0  0  0  0  0  0  0  0  0  0  0
   19.1984   71.0720   23.1233 H   0  0  0  0  0  0  0  0  0  0  0  0
   17.4001   70.8836   22.8179 H   0  0  0  0  0  0  0  0  0  0  0  0
   16.3840   72.9415   21.8463 H   0  0  0  0  0  0  0  0  0  0  0  0
   17.1456   73.6221   20.3688 H   0  0  0  0  0  0  0  0  0  0  0  0
   16.5382   71.9317   20.3688 H   0  0  0  0  0  0  0  0  0  0  0  0
   19.8451   70.6782   21.0191 H   0  0  0  0  0  0  0  0  0  0  0  0
   17.8549   69.4105   21.1443 H   0  0  0  0  0  0  0  0  0  0  0  0
   17.1230   70.3665   19.7653 H   0  0  0  0  0  0  0  0  0  0  0  0
   19.4564   68.4165   19.6129 H   0  0  0  0  0  0  0  0  0  0  0  0
   17.7820   68.2149   18.9411 H   0  0  0  0  0  0  0  0  0  0  0  0
   17.0524   70.5492   17.8830 H   0  0  0  0  0  0  0  0  0  0  0  0
   18.0985   71.0438   16.5091 H   0  0  0  0  0  0  0  0  0  0  0  0
   17.3220   69.4240   16.5091 H   0  0  0  0  0  0  0  0  0  0  0  0
   21.0405   64.3827   17.6980 H   0  0  0  0  0  0  0  0  0  0  0  0
   21.3643   61.6827   18.2761 H   0  0  0  0  0  0  0  0  0  0  0  0
   20.3755   61.6176   16.7779 H   0  0  0  0  0  0  0  0  0  0  0  0
   21.9500   62.4821   16.7779 H   0  0  0  0  0  0  0  0  0  0  0  0
   20.8270   63.6328   19.8969 H   0  0  0  0  0  0  0  0  0  0  0  0
   19.1755   64.2024   19.4788 H   0  0  0  0  0  0  0  0  0  0  0  0
   19.5462   62.4448   19.4788 H   0  0  0  0  0  0  0  0  0  0  0  0
  1  2  1  0
  2  3  1  0
  3  4  1  0
  4  5  2  0
  5  6  1  0
  6  7  1  0
  6  8  1  0
  8  9  1  0
  9 10  1  0
 10 11  1  0
 11 12  1  0
 12 13  1  0
 13 14  1  0
 14 15  2  0
 15 16  1  0
 16 17  1  0
 17 18  1  0
 17 19  1  0
 19 20  1  0
 20 21  1  0
 21 22  1  6
 21 23  1  0
 23 24  1  0
 24 25  1  0
 25 26  1  0
 26 27  1  6
  3 28  1  0
 28 29  1  0
 28 30  1  0
 26  8  1  0
 26 11  1  0
 23 12  1  0
 21 15  1  0
  1 31  1  0
  1 32  1  0
  1 33  1  0
  2 34  1  0
  2 35  1  0
  3 36  1  1
  4 37  1  0
  5 38  1  0
  6 39  1  6
  7 40  1  0
  7 41  1  0
  7 42  1  0
  8 43  1  1
  9 44  1  0
  9 45  1  0
 10 46  1  0
 10 47  1  0
 11 48  1  1
 12 49  1  6
 13 50  1  0
 13 51  1  0
 14 52  1  0
 16 53  1  0
 16 54  1  0
 17 55  1  1
 18 56  1  0
 19 57  1  0
 19 58  1  0
 20 59  1  0
 20 60  1  0
 22 61  1  0
 22 62  1  0
 22 63  1  0
 23 64  1  1
 24 65  1  0
 24 66  1  0
 25 67  1  0
 25 68  1  0
 27 69  1  0
 27 70  1  0
 27 71  1  0
 28 72  1  0
 29 73  1  0
 29 74  1  0
 29 75  1  0
 30 76  1  0
 30 77  1  0
 30 78  1  0
M  END
>  <meeko>  (2) 
{"is_sidechain": [false], "free_energy": -2.359, "intermolecular_energy": -4.271, "internal_energy": 0.308}

$$$$
MOL000449_docked
     RDKit          3D

 78 81  0  0  0  0  0  0  0  0999 V2000
   16.1110   75.2560   20.3820 C   0  0  0  0  0  0  0  0  0  0  0  0
   16.2960   75.3980   21.8890 C   0  0  0  0  0  0  0  0  0  0  0  0
   17.0900   76.6610   22.2880 C   0  0  2  0  0  0  0  0  0  0  0  0
   18.5150   76.5740   21.7790 C   0  0  0  0  0  0  0  0  0  0  0  0
   19.4060   75.6620   22.2020 C   0  0  0  0  0  0  0  0  0  0  0  0
   20.8370   75.5840   21.7060 C   0  0  1  0  0  0  0  0  0  0  0  0
   21.6780   74.9360   22.8080 C   0  0  0  0  0  0  0  0  0  0  0  0
   20.9000   74.8230   20.3570 C   0  0  1  0  0  0  0  0  0  0  0  0
   22.3590   74.4360   19.9750 C   0  0  0  0  0  0  0  0  0  0  0  0
   22.2850   73.1320   19.1680 C   0  0  0  0  0  0  0  0  0  0  0  0
   20.7960   72.9430   18.9170 C   0  0  1  0  0  0  0  0  0  0  0  0
   20.3090   71.5530   18.4920 C   0  0  2  0  0  0  0  0  0  0  0  0
   21.0170   71.0960   17.2070 C   0  0  0  0  0  0  0  0  0  0  0  0
   20.3460   69.9440   16.5300 C   0  0  0  0  0  0  0  0  0  0  0  0
   19.1070   69.5020   16.8150 C   0  0  0  0  0  0  0  0  0  0  0  0
   18.5410   68.3070   16.0780 C   0  0  0  0  0  0  0  0  0  0  0  0
   17.1430   68.5800   15.5210 C   0  0  1  0  0  0  0  0  0  0  0  0
   16.5960   67.3860   14.9650 O   0  0  0  0  0  0  0  0  0  0  0  0
   16.2060   69.1070   16.6050 C   0  0  0  0  0  0  0  0  0  0  0  0
   16.7800   70.3530   17.2760 C   0  0  0  0  0  0  0  0  0  0  0  0
   18.2090   70.1640   17.8700 C   0  0  1  0  0  0  0  0  0  0  0  0
   18.1350   69.2210   19.0940 C   0  0  0  0  0  0  0  0  0  0  0  0
   18.7710   71.5870   18.2710 C   0  0  1  0  0  0  0  0  0  0  0  0
   18.0200   72.2540   19.4510 C   0  0  0  0  0  0  0  0  0  0  0  0
   18.6250   73.5960   19.8990 C   0  0  0  0  0  0  0  0  0  0  0  0
   20.1280   73.4760   20.2070 C   0  0  2  0  0  0  0  0  0  0  0  0
   20.3500   72.5700   21.4410 C   0  0  0  0  0  0  0  0  0  0  0  0
   17.0110   76.9220   23.8220 C   0  0  0  0  0  0  0  0  0  0  0  0
   17.4610   75.6970   24.6270 C   0  0  0  0  0  0  0  0  0  0  0  0
   15.6350   77.3840   24.3150 C   0  0  0  0  0  0  0  0  0  0  0  0
   15.2535   74.5978   20.1783 H   0  0  0  0  0  0  0  0  0  0  0  0
   15.9261   76.2463   19.9403 H   0  0  0  0  0  0  0  0  0  0  0  0
   17.0199   74.8214   19.9403 H   0  0  0  0  0  0  0  0  0  0  0  0
   15.3032   75.4458   22.3602 H   0  0  0  0  0  0  0  0  0  0  0  0
   16.8741   74.5268   22.2309 H   0  0  0  0  0  0  0  0  0  0  0  0
   16.6267   77.5346   21.8061 H   0  0  0  0  0  0  0  0  0  0  0  0
   18.8385   77.3002   21.0187 H   0  0  0  0  0  0  0  0  0  0  0  0
   19.0781   74.9281   22.9529 H   0  0  0  0  0  0  0  0  0  0  0  0
   21.2465   76.5841   21.5009 H   0  0  0  0  0  0  0  0  0  0  0  0
   21.2879   75.2366   23.7916 H   0  0  0  0  0  0  0  0  0  0  0  0
   21.6271   73.8413   22.7123 H   0  0  0  0  0  0  0  0  0  0  0  0
   22.7235   75.2642   22.7123 H   0  0  0  0  0  0  0  0  0  0  0  0
   20.4143   75.5746   19.7173 H   0  0  0  0  0  0  0  0  0  0  0  0
   22.8128   75.2314   19.3656 H   0  0  0  0  0  0  0  0  0  0  0  0
   22.9770   74.3040   20.8754 H   0  0  0  0  0  0  0  0  0  0  0  0
   22.8332   73.2270   18.2191 H   0  0  0  0  0  0  0  0  0  0  0  0
   22.7386   72.2797   19.6952 H   0  0  0  0  0  0  0  0  0  0  0  0
   20.5079   73.4941   18.0096 H   0  0  0  0  0  0  0  0  0  0  0  0
   20.5493   70.8348   19.2898 H   0  0  0  0  0  0  0  0  0  0  0  0
   21.0451   71.9429   16.5056 H   0  0  0  0  0  0  0  0  0  0  0  0
   22.0231   70.7581   17.4963 H   0  0  0  0  0  0  0  0  0  0  0  0
   20.9057   69.4195   15.7416 H   0  0  0  0  0  0  0  0  0  0  0  0
   19.2118   68.0554   15.2433 H   0  0  0  0  0  0  0  0  0  0  0  0
   18.4626   67.4753   16.7937 H   0  0  0  0  0  0  0  0  0  0  0  0
   17.2382   69.3469   14.7382 H   0  0  0  0  0  0  0  0  0  0  0  0
   16.0380   66.9470   15.6260 H   0  0  0  0  0  0  0  0  0  0  0  0
   15.2370   69.3593   16.1496 H   0  0  0  0  0  0  0  0  0  0  0  0
   16.0846   68.3254   17.3694 H   0  0  0  0  0  0  0  0  0  0  0  0
   16.8221   71.1582   16.5278 H   0  0  0  0  0  0  0  0  0  0  0  0
   16.1170   70.5878   18.1217 H   0  0  0  0  0  0  0  0  0  0  0  0
   18.1817   69.8156   20.0183 H   0  0  0  0  0  0  0  0  0  0  0  0
   17.1900   68.6587   19.0670 H   0  0  0  0  0  0  0  0  0  0  0  0
   18.9808   68.5182   19.0670 H   0  0  0  0  0  0  0  0  0  0  0  0
   18.5723   72.2391   17.4077 H   0  0  0  0  0  0  0  0  0  0  0  0
   16.9786   72.4295   19.1433 H   0  0  0  0  0  0  0  0  0  0  0  0
   18.0986   71.5677   20.3071 H   0  0  0  0  0  0  0  0  0  0  0  0
   18.4848   74.3346   19.0960 H   0  0  0  0  0  0  0  0  0  0  0  0
   18.1129   73.9089   20.8209 H   0  0  0  0  0  0  0  0  0  0  0  0
   20.2057   73.1588   22.3589 H   0  0  0  0  0  0  0  0  0  0  0  0
   19.6287   71.7397   21.4208 H   0  0  0  0  0  0  0  0  0  0  0  0
   21.3734   72.1672   21.4208 H   0  0  0  0  0  0  0  0  0  0  0  0
   17.7059   77.7570   23.9952 H   0  0  0  0  0  0  0  0  0  0  0  0
   17.3809   75.9151   25.7022 H   0  0  0  0  0  0  0  0  0  0  0  0
   16.8194   74.8388   24.3782 H   0  0  0  0  0  0  0  0  0  0  0  0
   18.5055   75.4582   24.3782 H   0  0  0  0  0  0  0  0  0  0  0  0
   15.6221   77.3883   25.4149 H   0  0  0  0  0  0  0  0  0  0  0  0
   15.4337   78.3990   23.9419 H   0  0  0  0  0  0  0  0  0  0  0  0
   14.8619   76.6962   23.9419 H   0  0  0  0  0  0  0  0  0  0  0  0
  1  2  1  0
  2  3  1  0
  3  4  1  0
  4  5  2  0
  5  6  1  0
  6  7  1  0
  6  8  1  0
  8  9  1  0
  9 10  1  0
 10 11  1  0
 11 12  1  0
 12 13  1  0
 13 14  1  0
 14 15  2  0
 15 16  1  0
 16 17  1  0
 17 18  1  0
 17 19  1  0
 19 20  1  0
 20 21  1  0
 21 22  1  1
 21 23  1  0
 23 24  1  0
 24 25  1  0
 25 26  1  0
 26 27  1  1
  3 28  1  0
 28 29  1  0
 28 30  1  0
 26  8  1  0
 26 11  1  0
 23 12  1  0
 21 15  1  0
  1 31  1  0
  1 32  1  0
  1 33  1  0
  2 34  1  0
  2 35  1  0
  3 36  1  6
  4 37  1  0
  5 38  1  0
  6 39  1  6
  7 40  1  0
  7 41  1  0
  7 42  1  0
  8 43  1  6
  9 44  1  0
  9 45  1  0
 10 46  1  0
 10 47  1  0
 11 48  1  6
 12 49  1  1
 13 50  1  0
 13 51  1  0
 14 52  1  0
 16 53  1  0
 16 54  1  0
 17 55  1  6
 18 56  1  0
 19 57  1  0
 19 58  1  0
 20 59  1  0
 20 60  1  0
 22 61  1  0
 22 62  1  0
 22 63  1  0
 23 64  1  6
 24 65  1  0
 24 66  1  0
 25 67  1  0
 25 68  1  0
 27 69  1  0
 27 70  1  0
 27 71  1  0
 28 72  1  0
 29 73  1  0
 29 74  1  0
 29 75  1  0
 30 76  1  0
 30 77  1  0
 30 78  1  0
M  END
>  <meeko>  (3) 
{"is_sidechain": [false], "free_energy": -2.282, "intermolecular_energy": -4.129, "internal_energy": 0.267}

$$$$
MOL000449_docked
     RDKit          3D

 78 81  0  0  0  0  0  0  0  0999 V2000
   20.4480   63.0430   18.9970 C   0  0  0  0  0  0  0  0  0  0  0  0
   19.4150   63.8070   18.1750 C   0  0  0  0  0  0  0  0  0  0  0  0
   19.7800   63.9020   16.6770 C   0  0  2  0  0  0  0  0  0  0  0  0
   19.4100   65.2650   16.1260 C   0  0  0  0  0  0  0  0  0  0  0  0
   19.3970   66.3900   16.8610 C   0  0  0  0  0  0  0  0  0  0  0  0
   19.0100   67.7510   16.3160 C   0  0  1  0  0  0  0  0  0  0  0  0
   17.4890   67.8790   16.4170 C   0  0  0  0  0  0  0  0  0  0  0  0
   19.7730   68.8700   17.0710 C   0  0  1  0  0  0  0  0  0  0  0  0
   20.5280   69.8200   16.0950 C   0  0  0  0  0  0  0  0  0  0  0  0
   20.5660   71.2060   16.7520 C   0  0  0  0  0  0  0  0  0  0  0  0
   20.0490   70.9570   18.1600 C   0  0  1  0  0  0  0  0  0  0  0  0
   19.5700   72.1640   18.9750 C   0  0  2  0  0  0  0  0  0  0  0  0
   20.6900   73.2070   19.1130 C   0  0  0  0  0  0  0  0  0  0  0  0
   20.4370   74.2200   20.1840 C   0  0  0  0  0  0  0  0  0  0  0  0
   19.4900   74.1120   21.1340 C   0  0  0  0  0  0  0  0  0  0  0  0
   19.3100   75.2170   22.1540 C   0  0  0  0  0  0  0  0  0  0  0  0
   19.2750   74.6810   23.5870 C   0  0  1  0  0  0  0  0  0  0  0  0
   18.9600   75.7360   24.4950 O   0  0  0  0  0  0  0  0  0  0  0  0
   18.2470   73.5630   23.7370 C   0  0  0  0  0  0  0  0  0  0  0  0
   18.5050   72.4360   22.7380 C   0  0  0  0  0  0  0  0  0  0  0  0
   18.5610   72.8950   21.2490 C   0  0  1  0  0  0  0  0  0  0  0  0
   17.1470   73.3280   20.7930 C   0  0  0  0  0  0  0  0  0  0  0  0
   19.1040   71.6910   20.3800 C   0  0  1  0  0  0  0  0  0  0  0  0
   18.1400   70.4790   20.3050 C   0  0  0  0  0  0  0  0  0  0  0  0
   18.6300   69.3470   19.3850 C   0  0  0  0  0  0  0  0  0  0  0  0
   18.9740   69.8580   17.9760 C   0  0  2  0  0  0  0  0  0  0  0  0
   17.6960   70.3540   17.2590 C   0  0  0  0  0  0  0  0  0  0  0  0
   19.1550   62.7310   15.8630 C   0  0  0  0  0  0  0  0  0  0  0  0
   17.8190   62.2750   16.4640 C   0  0  0  0  0  0  0  0  0  0  0  0
   20.0770   61.5200   15.6850 C   0  0  0  0  0  0  0  0  0  0  0  0
   20.2470   63.1917   20.0682 H   0  0  0  0  0  0  0  0  0  0  0  0
   20.3869   61.9711   18.7578 H   0  0  0  0  0  0  0  0  0  0  0  0
   21.4551   63.4153   18.7578 H   0  0  0  0  0  0  0  0  0  0  0  0
   18.4461   63.2944   18.2671 H   0  0  0  0  0  0  0  0  0  0  0  0
   19.3779   64.8335   18.5685 H   0  0  0  0  0  0  0  0  0  0  0  0
   20.8700   63.7963   16.5738 H   0  0  0  0  0  0  0  0  0  0  0  0
   19.1363   65.3373   15.0630 H   0  0  0  0  0  0  0  0  0  0  0  0
   19.6841   66.3193   17.9205 H   0  0  0  0  0  0  0  0  0  0  0  0
   19.2961   67.8579   15.2592 H   0  0  0  0  0  0  0  0  0  0  0  0
   17.1927   67.9039   17.4760 H   0  0  0  0  0  0  0  0  0  0  0  0
   17.1656   68.8075   15.9238 H   0  0  0  0  0  0  0  0  0  0  0  0
   17.0150   67.0176   15.9238 H   0  0  0  0  0  0  0  0  0  0  0  0
   20.4014   68.2388   17.7165 H   0  0  0  0  0  0  0  0  0  0  0  0
   21.5516   69.4534   15.9283 H   0  0  0  0  0  0  0  0  0  0  0  0
   20.0203   69.8631   15.1201 H   0  0  0  0  0  0  0  0  0  0  0  0
   21.5928   71.5998   16.7760 H   0  0  0  0  0  0  0  0  0  0  0  0
   19.9685   71.9510   16.2061 H   0  0  0  0  0  0  0  0  0  0  0  0
   20.8868   70.6538   18.8051 H   0  0  0  0  0  0  0  0  0  0  0  0
   18.7261   72.6340   18.4488 H   0  0  0  0  0  0  0  0  0  0  0  0
   21.6277   72.6814   19.3462 H   0  0  0  0  0  0  0  0  0  0  0  0
   20.7418   73.7525   18.1592 H   0  0  0  0  0  0  0  0  0  0  0  0
   21.0712   75.1187   20.1960 H   0  0  0  0  0  0  0  0  0  0  0  0
   20.1469   75.9248   22.0609 H   0  0  0  0  0  0  0  0  0  0  0  0
   18.3462   75.7079   21.9535 H   0  0  0  0  0  0  0  0  0  0  0  0
   20.2703   74.2733   23.8175 H   0  0  0  0  0  0  0  0  0  0  0  0
   18.2200   75.4660   25.0600 H   0  0  0  0  0  0  0  0  0  0  0  0
   18.3046   73.1575   24.7579 H   0  0  0  0  0  0  0  0  0  0  0  0
   17.2483   73.9801   23.5406 H   0  0  0  0  0  0  0  0  0  0  0  0
   19.4676   71.9668   22.9898 H   0  0  0  0  0  0  0  0  0  0  0  0
   17.6551   71.7426   22.8208 H   0  0  0  0  0  0  0  0  0  0  0  0
   16.5198   73.5201   21.6760 H   0  0  0  0  0  0  0  0  0  0  0  0
   17.2211   74.2446   20.1894 H   0  0  0  0  0  0  0  0  0  0  0  0
   16.6951   72.5271   20.1894 H   0  0  0  0  0  0  0  0  0  0  0  0
   19.9878   71.3135   20.9151 H   0  0  0  0  0  0  0  0  0  0  0  0
   18.0165   70.0717   21.3193 H   0  0  0  0  0  0  0  0  0  0  0  0
   17.1953   70.8489   19.8798 H   0  0  0  0  0  0  0  0  0  0  0  0
   19.5292   68.8936   19.8277 H   0  0  0  0  0  0  0  0  0  0  0  0
   17.8184   68.6105   19.2906 H   0  0  0  0  0  0  0  0  0  0  0  0
   16.9450   70.6455   18.0081 H   0  0  0  0  0  0  0  0  0  0  0  0
   17.9421   71.2219   16.6296 H   0  0  0  0  0  0  0  0  0  0  0  0
   17.2922   69.5473   16.6296 H   0  0  0  0  0  0  0  0  0  0  0  0
   18.9889   63.1522   14.8605 H   0  0  0  0  0  0  0  0  0  0  0  0
   17.8842   62.2973   17.5618 H   0  0  0  0  0  0  0  0  0  0  0  0
   17.0174   62.9504   16.1305 H   0  0  0  0  0  0  0  0  0  0  0  0
   17.5976   61.2504   16.1305 H   0  0  0  0  0  0  0  0  0  0  0  0
   20.3706   61.1344   16.6725 H   0  0  0  0  0  0  0  0  0  0  0  0
   19.5465   60.7341   15.1274 H   0  0  0  0  0  0  0  0  0  0  0  0
   20.9757   61.8222   15.1274 H   0  0  0  0  0  0  0  0  0  0  0  0
  1  2  1  0
  2  3  1  0
  3  4  1  0
  4  5  2  0
  5  6  1  0
  6  7  1  0
  6  8  1  0
  8  9  1  0
  9 10  1  0
 10 11  1  0
 11 12  1  0
 12 13  1  0
 13 14  1  0
 14 15  2  0
 15 16  1  0
 16 17  1  0
 17 18  1  0
 17 19  1  0
 19 20  1  0
 20 21  1  0
 21 22  1  6
 21 23  1  0
 23 24  1  0
 24 25  1  0
 25 26  1  0
 26 27  1  6
  3 28  1  0
 28 29  1  0
 28 30  1  0
 26  8  1  0
 26 11  1  0
 23 12  1  0
 21 15  1  0
  1 31  1  0
  1 32  1  0
  1 33  1  0
  2 34  1  0
  2 35  1  0
  3 36  1  1
  4 37  1  0
  5 38  1  0
  6 39  1  6
  7 40  1  0
  7 41  1  0
  7 42  1  0
  8 43  1  1
  9 44  1  0
  9 45  1  0
 10 46  1  0
 10 47  1  0
 11 48  1  1
 12 49  1  6
 13 50  1  0
 13 51  1  0
 14 52  1  0
 16 53  1  0
 16 54  1  0
 17 55  1  1
 18 56  1  0
 19 57  1  0
 19 58  1  0
 20 59  1  0
 20 60  1  0
 22 61  1  0
 22 62  1  0
 22 63  1  0
 23 64  1  1
 24 65  1  0
 24 66  1  0
 25 67  1  0
 25 68  1  0
 27 69  1  0
 27 70  1  0
 27 71  1  0
 28 72  1  0
 29 73  1  0
 29 74  1  0
 29 75  1  0
 30 76  1  0
 30 77  1  0
 30 78  1  0
M  END
>  <meeko>  (4) 
{"is_sidechain": [false], "free_energy": -1.994, "intermolecular_energy": -3.737, "internal_energy": 0.256}

$$$$
MOL000449_docked
     RDKit          3D

 78 81  0  0  0  0  0  0  0  0999 V2000
   16.7690   77.2180   23.8460 C   0  0  0  0  0  0  0  0  0  0  0  0
   16.9440   75.7630   23.4260 C   0  0  0  0  0  0  0  0  0  0  0  0
   18.1190   75.0600   24.1420 C   0  0  2  0  0  0  0  0  0  0  0  0
   19.4220   75.3330   23.4170 C   0  0  0  0  0  0  0  0  0  0  0  0
   19.4940   75.7710   22.1490 C   0  0  0  0  0  0  0  0  0  0  0  0
   20.7970   76.0290   21.4170 C   0  0  1  0  0  0  0  0  0  0  0  0
   21.9440   75.7300   22.3850 C   0  0  0  0  0  0  0  0  0  0  0  0
   20.8580   75.1880   20.1150 C   0  0  1  0  0  0  0  0  0  0  0  0
   22.3190   74.7990   19.7420 C   0  0  0  0  0  0  0  0  0  0  0  0
   22.2560   73.4480   19.0150 C   0  0  0  0  0  0  0  0  0  0  0  0
   20.7680   73.2250   18.7900 C   0  0  1  0  0  0  0  0  0  0  0  0
   20.2960   71.8060   18.4540 C   0  0  2  0  0  0  0  0  0  0  0  0
   20.9990   71.2820   17.1920 C   0  0  0  0  0  0  0  0  0  0  0  0
   20.3380   70.0830   16.5910 C   0  0  0  0  0  0  0  0  0  0  0  0
   19.1080   69.6420   16.9140 C   0  0  0  0  0  0  0  0  0  0  0  0
   18.5510   68.3980   16.2550 C   0  0  0  0  0  0  0  0  0  0  0  0
   17.1440   68.6190   15.6960 C   0  0  1  0  0  0  0  0  0  0  0  0
   16.6100   67.3860   15.2180 O   0  0  0  0  0  0  0  0  0  0  0  0
   16.2100   69.1970   16.7560 C   0  0  0  0  0  0  0  0  0  0  0  0
   16.7730   70.4890   17.3460 C   0  0  0  0  0  0  0  0  0  0  0  0
   18.2100   70.3540   17.9360 C   0  0  1  0  0  0  0  0  0  0  0  0
   18.1600   69.4850   19.2150 C   0  0  0  0  0  0  0  0  0  0  0  0
   18.7560   71.8060   18.2460 C   0  0  1  0  0  0  0  0  0  0  0  0
   18.0060   72.5330   19.3920 C   0  0  0  0  0  0  0  0  0  0  0  0
   18.5970   73.9070   19.7520 C   0  0  0  0  0  0  0  0  0  0  0  0
   20.1040   73.8250   20.0520 C   0  0  2  0  0  0  0  0  0  0  0  0
   20.3490   72.9970   21.3360 C   0  0  0  0  0  0  0  0  0  0  0  0
   17.8420   73.5400   24.3350 C   0  0  0  0  0  0  0  0  0  0  0  0
   18.3060   73.0520   25.7130 C   0  0  0  0  0  0  0  0  0  0  0  0
   18.4390   72.6440   23.2450 C   0  0  0  0  0  0  0  0  0  0  0  0
   16.7610   77.2843   24.9440 H   0  0  0  0  0  0  0  0  0  0  0  0
   17.6016   77.8170   23.4485 H   0  0  0  0  0  0  0  0  0  0  0  0
   15.8181   77.6025   23.4485 H   0  0  0  0  0  0  0  0  0  0  0  0
   16.0170   75.2182   23.6580 H   0  0  0  0  0  0  0  0  0  0  0  0
   17.1675   75.7582   22.3490 H   0  0  0  0  0  0  0  0  0  0  0  0
   18.2164   75.4819   25.1532 H   0  0  0  0  0  0  0  0  0  0  0  0
   20.3630   75.1626   23.9606 H   0  0  0  0  0  0  0  0  0  0  0  0
   18.5526   75.9532   21.6100 H   0  0  0  0  0  0  0  0  0  0  0  0
   20.8783   77.0786   21.0980 H   0  0  0  0  0  0  0  0  0  0  0  0
   21.5840   75.8238   23.4202 H   0  0  0  0  0  0  0  0  0  0  0  0
   22.3096   74.7065   22.2153 H   0  0  0  0  0  0  0  0  0  0  0  0
   22.7628   76.4447   22.2153 H   0  0  0  0  0  0  0  0  0  0  0  0
   20.3549   75.8932   19.4371 H   0  0  0  0  0  0  0  0  0  0  0  0
   22.7557   75.5627   19.0816 H   0  0  0  0  0  0  0  0  0  0  0  0
   22.9473   74.7298   20.6423 H   0  0  0  0  0  0  0  0  0  0  0  0
   22.7946   73.4932   18.0569 H   0  0  0  0  0  0  0  0  0  0  0  0
   22.7258   72.6348   19.5877 H   0  0  0  0  0  0  0  0  0  0  0  0
   20.4650   73.7171   17.8540 H   0  0  0  0  0  0  0  0  0  0  0  0
   20.5527   71.1405   19.2914 H   0  0  0  0  0  0  0  0  0  0  0  0
   21.0097   72.0858   16.4411 H   0  0  0  0  0  0  0  0  0  0  0  0
   22.0118   70.9749   17.4917 H   0  0  0  0  0  0  0  0  0  0  0  0
   20.8977   69.5203   15.8294 H   0  0  0  0  0  0  0  0  0  0  0  0
   19.2176   68.1056   15.4303 H   0  0  0  0  0  0  0  0  0  0  0  0
   18.4898   67.6099   17.0200 H   0  0  0  0  0  0  0  0  0  0  0  0
   17.2202   69.3392   14.8681 H   0  0  0  0  0  0  0  0  0  0  0  0
   16.5760   66.7440   15.9450 H   0  0  0  0  0  0  0  0  0  0  0  0
   15.2334   69.4087   16.2962 H   0  0  0  0  0  0  0  0  0  0  0  0
   16.1067   68.4608   17.5668 H   0  0  0  0  0  0  0  0  0  0  0  0
   16.7974   71.2486   16.5507 H   0  0  0  0  0  0  0  0  0  0  0  0
   16.1145   70.7657   18.1825 H   0  0  0  0  0  0  0  0  0  0  0  0
   18.1974   70.1350   20.1016 H   0  0  0  0  0  0  0  0  0  0  0  0
   17.2269   68.9027   19.2264 H   0  0  0  0  0  0  0  0  0  0  0  0
   19.0202   68.7995   19.2264 H   0  0  0  0  0  0  0  0  0  0  0  0
   18.5407   72.4023   17.3471 H   0  0  0  0  0  0  0  0  0  0  0  0
   16.9595   72.6761   19.0847 H   0  0  0  0  0  0  0  0  0  0  0  0
   18.1013   71.9006   20.2870 H   0  0  0  0  0  0  0  0  0  0  0  0
   18.4398   74.5937   18.9072 H   0  0  0  0  0  0  0  0  0  0  0  0
   18.0891   74.2687   20.6582 H   0  0  0  0  0  0  0  0  0  0  0  0
   20.1629   73.6260   22.2190 H   0  0  0  0  0  0  0  0  0  0  0  0
   19.6679   72.1333   21.3509 H   0  0  0  0  0  0  0  0  0  0  0  0
   21.3904   72.6430   21.3509 H   0  0  0  0  0  0  0  0  0  0  0  0
   16.7487   73.4480   24.2558 H   0  0  0  0  0  0  0  0  0  0  0  0
   17.7749   73.6106   26.4978 H   0  0  0  0  0  0  0  0  0  0  0  0
   18.0871   71.9788   25.8148 H   0  0  0  0  0  0  0  0  0  0  0  0
   19.3888   73.2166   25.8148 H   0  0  0  0  0  0  0  0  0  0  0  0
   18.9910   71.8155   23.7130 H   0  0  0  0  0  0  0  0  0  0  0  0
   17.6299   72.2386   22.6197 H   0  0  0  0  0  0  0  0  0  0  0  0
   19.1247   73.2346   22.6197 H   0  0  0  0  0  0  0  0  0  0  0  0
  1  2  1  0
  2  3  1  0
  3  4  1  0
  4  5  2  0
  5  6  1  0
  6  7  1  0
  6  8  1  0
  8  9  1  0
  9 10  1  0
 10 11  1  0
 11 12  1  0
 12 13  1  0
 13 14  1  0
 14 15  2  0
 15 16  1  0
 16 17  1  0
 17 18  1  0
 17 19  1  0
 19 20  1  0
 20 21  1  0
 21 22  1  1
 21 23  1  0
 23 24  1  0
 24 25  1  0
 25 26  1  0
 26 27  1  1
  3 28  1  0
 28 29  1  0
 28 30  1  0
 26  8  1  0
 26 11  1  0
 23 12  1  0
 21 15  1  0
  1 31  1  0
  1 32  1  0
  1 33  1  0
  2 34  1  0
  2 35  1  0
  3 36  1  1
  4 37  1  0
  5 38  1  0
  6 39  1  6
  7 40  1  0
  7 41  1  0
  7 42  1  0
  8 43  1  6
  9 44  1  0
  9 45  1  0
 10 46  1  0
 10 47  1  0
 11 48  1  6
 12 49  1  1
 13 50  1  0
 13 51  1  0
 14 52  1  0
 16 53  1  0
 16 54  1  0
 17 55  1  6
 18 56  1  0
 19 57  1  0
 19 58  1  0
 20 59  1  0
 20 60  1  0
 22 61  1  0
 22 62  1  0
 22 63  1  0
 23 64  1  6
 24 65  1  0
 24 66  1  0
 25 67  1  0
 25 68  1  0
 27 69  1  0
 27 70  1  0
 27 71  1  0
 28 72  1  0
 29 73  1  0
 29 74  1  0
 29 75  1  0
 30 76  1  0
 30 77  1  0
 30 78  1  0
M  END
>  <meeko>  (5) 
{"is_sidechain": [false], "free_energy": -1.357, "intermolecular_energy": -3.116, "internal_energy": 0.477}

$$$$
MOL000449_docked
     RDKit          3D

 78 81  0  0  0  0  0  0  0  0999 V2000
   18.5700   68.6110   20.5200 C   0  0  0  0  0  0  0  0  0  0  0  0
   17.8020   67.7900   19.4900 C   0  0  0  0  0  0  0  0  0  0  0  0
   18.0090   68.2840   18.0410 C   0  0  2  0  0  0  0  0  0  0  0  0
   19.0630   69.3720   17.9970 C   0  0  0  0  0  0  0  0  0  0  0  0
   20.0220   69.4470   17.0580 C   0  0  0  0  0  0  0  0  0  0  0  0
   21.0880   70.5250   17.0220 C   0  0  1  0  0  0  0  0  0  0  0  0
   20.7870   71.4390   15.8330 C   0  0  0  0  0  0  0  0  0  0  0  0
   21.1400   71.2760   18.3780 C   0  0  1  0  0  0  0  0  0  0  0  0
   22.5330   71.9260   18.6290 C   0  0  0  0  0  0  0  0  0  0  0  0
   22.2980   73.1870   19.4710 C   0  0  0  0  0  0  0  0  0  0  0  0
   20.8330   73.0930   19.8680 C   0  0  1  0  0  0  0  0  0  0  0  0
   20.1410   74.3650   20.3710 C   0  0  2  0  0  0  0  0  0  0  0  0
   20.8750   74.9380   21.5940 C   0  0  0  0  0  0  0  0  0  0  0  0
   20.0720   75.9400   22.3600 C   0  0  0  0  0  0  0  0  0  0  0  0
   18.7510   76.1450   22.2050 C   0  0  0  0  0  0  0  0  0  0  0  0
   18.0480   77.2080   23.0230 C   0  0  0  0  0  0  0  0  0  0  0  0
   16.7860   76.6750   23.7040 C   0  0  1  0  0  0  0  0  0  0  0  0
   16.0850   77.7430   24.3380 O   0  0  0  0  0  0  0  0  0  0  0  0
   15.8610   75.9900   22.7010 C   0  0  0  0  0  0  0  0  0  0  0  0
   16.5880   74.8770   21.9480 C   0  0  0  0  0  0  0  0  0  0  0  0
   17.8910   75.3330   21.2250 C   0  0  1  0  0  0  0  0  0  0  0  0
   17.5240   76.2540   20.0370 C   0  0  0  0  0  0  0  0  0  0  0  0
   18.6650   74.0430   20.7370 C   0  0  1  0  0  0  0  0  0  0  0  0
   17.9380   73.2550   19.6180 C   0  0  0  0  0  0  0  0  0  0  0  0
   18.7340   72.0530   19.0820 C   0  0  0  0  0  0  0  0  0  0  0  0
   20.1510   72.4530   18.6350 C   0  0  2  0  0  0  0  0  0  0  0  0
   20.0790   73.3930   17.4070 C   0  0  0  0  0  0  0  0  0  0  0  0
   16.6630   68.7200   17.3900 C   0  0  0  0  0  0  0  0  0  0  0  0
   16.7390   68.6870   15.8580 C   0  0  0  0  0  0  0  0  0  0  0  0
   16.1510   70.0900   17.8490 C   0  0  0  0  0  0  0  0  0  0  0  0
   18.2761   68.2968   21.5324 H   0  0  0  0  0  0  0  0  0  0  0  0
   19.6499   68.4507   20.3854 H   0  0  0  0  0  0  0  0  0  0  0  0
   18.3381   69.6778   20.3854 H   0  0  0  0  0  0  0  0  0  0  0  0
   18.1388   66.7448   19.5545 H   0  0  0  0  0  0  0  0  0  0  0  0
   16.7316   67.8943   19.7211 H   0  0  0  0  0  0  0  0  0  0  0  0
   18.3831   67.4461   17.4344 H   0  0  0  0  0  0  0  0  0  0  0  0
   19.0421   70.1454   18.7790 H   0  0  0  0  0  0  0  0  0  0  0  0
   20.0342   68.6808   16.2688 H   0  0  0  0  0  0  0  0  0  0  0  0
   22.0910   70.0955   16.8822 H   0  0  0  0  0  0  0  0  0  0  0  0
   20.4627   72.4238   16.2004 H   0  0  0  0  0  0  0  0  0  0  0  0
   21.6940   71.5562   15.2218 H   0  0  0  0  0  0  0  0  0  0  0  0
   19.9879   70.9943   15.2218 H   0  0  0  0  0  0  0  0  0  0  0  0
   20.8660   70.4428   19.0418 H   0  0  0  0  0  0  0  0  0  0  0  0
   23.1838   71.2253   19.1726 H   0  0  0  0  0  0  0  0  0  0  0  0
   23.0249   72.1768   17.6776 H   0  0  0  0  0  0  0  0  0  0  0  0
   22.9452   73.1901   20.3604 H   0  0  0  0  0  0  0  0  0  0  0  0
   22.5310   74.1123   18.9238 H   0  0  0  0  0  0  0  0  0  0  0  0
   20.7435   72.4922   20.7851 H   0  0  0  0  0  0  0  0  0  0  0  0
   20.1644   75.1203   19.5716 H   0  0  0  0  0  0  0  0  0  0  0  0
   21.1282   74.1067   22.2684 H   0  0  0  0  0  0  0  0  0  0  0  0
   21.7677   75.4597   21.2187 H   0  0  0  0  0  0  0  0  0  0  0  0
   20.5994   76.5544   23.1045 H   0  0  0  0  0  0  0  0  0  0  0  0
   18.7394   77.5746   23.7960 H   0  0  0  0  0  0  0  0  0  0  0  0
   17.7466   78.0150   22.3390 H   0  0  0  0  0  0  0  0  0  0  0  0
   17.0973   75.9341   24.4551 H   0  0  0  0  0  0  0  0  0  0  0  0
   16.7160   78.3100   24.8080 H   0  0  0  0  0  0  0  0  0  0  0  0
   15.0046   75.5584   23.2398 H   0  0  0  0  0  0  0  0  0  0  0  0
   15.5226   76.7402   21.9712 H   0  0  0  0  0  0  0  0  0  0  0  0
   16.8524   74.0896   22.6692 H   0  0  0  0  0  0  0  0  0  0  0  0
   15.9001   74.5274   21.1640 H   0  0  0  0  0  0  0  0  0  0  0  0
   17.1423   77.2119   20.4200 H   0  0  0  0  0  0  0  0  0  0  0  0
   18.4188   76.4349   19.4232 H   0  0  0  0  0  0  0  0  0  0  0  0
   16.7501   75.7699   19.4232 H   0  0  0  0  0  0  0  0  0  0  0  0
   18.6769   73.3598   21.5990 H   0  0  0  0  0  0  0  0  0  0  0  0
   16.9825   72.8861   20.0193 H   0  0  0  0  0  0  0  0  0  0  0  0
   17.8033   73.9492   18.7754 H   0  0  0  0  0  0  0  0  0  0  0  0
   18.8126   71.2963   19.8765 H   0  0  0  0  0  0  0  0  0  0  0  0
   18.2007   71.6559   18.2057 H   0  0  0  0  0  0  0  0  0  0  0  0
   19.9991   74.4359   17.7477 H   0  0  0  0  0  0  0  0  0  0  0  0
   20.9889   73.2741   16.8004 H   0  0  0  0  0  0  0  0  0  0  0  0
   19.1978   73.1369   16.8004 H   0  0  0  0  0  0  0  0  0  0  0  0
   15.9343   67.9756   17.7433 H   0  0  0  0  0  0  0  0  0  0  0  0
   17.7070   68.2666   15.5479 H   0  0  0  0  0  0  0  0  0  0  0  0
   15.9245   68.0615   15.4639 H   0  0  0  0  0  0  0  0  0  0  0  0
   16.6400   69.7092   15.4639 H   0  0  0  0  0  0  0  0  0  0  0  0
   16.1372   70.1268   18.9483 H   0  0  0  0  0  0  0  0  0  0  0  0
   16.8155   70.8776   17.4640 H   0  0  0  0  0  0  0  0  0  0  0  0
   15.1329   70.2487   17.4640 H   0  0  0  0  0  0  0  0  0  0  0  0
  1  2  1  0
  2  3  1  0
  3  4  1  0
  4  5  2  0
  5  6  1  0
  6  7  1  0
  6  8  1  0
  8  9  1  0
  9 10  1  0
 10 11  1  0
 11 12  1  0
 12 13  1  0
 13 14  1  0
 14 15  2  0
 15 16  1  0
 16 17  1  0
 17 18  1  0
 17 19  1  0
 19 20  1  0
 20 21  1  0
 21 22  1  6
 21 23  1  0
 23 24  1  0
 24 25  1  0
 25 26  1  0
 26 27  1  6
  3 28  1  0
 28 29  1  0
 28 30  1  0
 26  8  1  0
 26 11  1  0
 23 12  1  0
 21 15  1  0
  1 31  1  0
  1 32  1  0
  1 33  1  0
  2 34  1  0
  2 35  1  0
  3 36  1  6
  4 37  1  0
  5 38  1  0
  6 39  1  6
  7 40  1  0
  7 41  1  0
  7 42  1  0
  8 43  1  1
  9 44  1  0
  9 45  1  0
 10 46  1  0
 10 47  1  0
 11 48  1  1
 12 49  1  6
 13 50  1  0
 13 51  1  0
 14 52  1  0
 16 53  1  0
 16 54  1  0
 17 55  1  1
 18 56  1  0
 19 57  1  0
 19 58  1  0
 20 59  1  0
 20 60  1  0
 22 61  1  0
 22 62  1  0
 22 63  1  0
 23 64  1  1
 24 65  1  0
 24 66  1  0
 25 67  1  0
 25 68  1  0
 27 69  1  0
 27 70  1  0
 27 71  1  0
 28 72  1  0
 29 73  1  0
 29 74  1  0
 29 75  1  0
 30 76  1  0
 30 77  1  0
 30 78  1  0
M  END
>  <meeko>  (6) 
{"is_sidechain": [false], "free_energy": -0.835, "intermolecular_energy": -2.144, "internal_energy": 0.194}

$$$$
MOL000449_docked
     RDKit          3D

 78 81  0  0  0  0  0  0  0  0999 V2000
   16.3760   74.5390   20.9740 C   0  0  0  0  0  0  0  0  0  0  0  0
   16.0570   75.7720   21.8130 C   0  0  0  0  0  0  0  0  0  0  0  0
   17.3150   76.5700   22.2230 C   0  0  2  0  0  0  0  0  0  0  0  0
   18.5600   75.9390   21.6330 C   0  0  0  0  0  0  0  0  0  0  0  0
   19.8030   76.4040   21.8390 C   0  0  0  0  0  0  0  0  0  0  0  0
   21.0490   75.7840   21.2340 C   0  0  1  0  0  0  0  0  0  0  0  0
   22.2570   76.3140   22.0100 C   0  0  0  0  0  0  0  0  0  0  0  0
   20.9400   74.2370   21.2470 C   0  0  1  0  0  0  0  0  0  0  0  0
   20.1780   73.7180   22.5020 C   0  0  0  0  0  0  0  0  0  0  0  0
   19.4650   72.4220   22.0930 C   0  0  0  0  0  0  0  0  0  0  0  0
   20.0210   72.1190   20.7100 C   0  0  1  0  0  0  0  0  0  0  0  0
   19.2530   71.1310   19.8260 C   0  0  2  0  0  0  0  0  0  0  0  0
   19.1040   69.7730   20.5290 C   0  0  0  0  0  0  0  0  0  0  0  0
   18.7070   68.6620   19.6090 C   0  0  0  0  0  0  0  0  0  0  0  0
   18.7380   68.7300   18.2660 C   0  0  0  0  0  0  0  0  0  0  0  0
   18.2880   67.5460   17.4360 C   0  0  0  0  0  0  0  0  0  0  0  0
   19.3090   67.1710   16.3600 C   0  0  1  0  0  0  0  0  0  0  0  0
   18.7770   66.1500   15.5170 O   0  0  0  0  0  0  0  0  0  0  0  0
   19.6890   68.3800   15.5100 C   0  0  0  0  0  0  0  0  0  0  0  0
   20.2050   69.5270   16.3780 C   0  0  0  0  0  0  0  0  0  0  0  0
   19.2260   69.9720   17.5060 C   0  0  1  0  0  0  0  0  0  0  0  0
   17.9930   70.6600   16.8730 C   0  0  0  0  0  0  0  0  0  0  0  0
   20.0000   70.9540   18.4750 C   0  0  1  0  0  0  0  0  0  0  0  0
   20.3810   72.3100   17.8290 C   0  0  0  0  0  0  0  0  0  0  0  0
   21.0530   73.2970   18.7990 C   0  0  0  0  0  0  0  0  0  0  0  0
   20.2140   73.5150   20.0710 C   0  0  2  0  0  0  0  0  0  0  0  0
   18.8860   74.2270   19.7200 C   0  0  0  0  0  0  0  0  0  0  0  0
   17.4000   76.7440   23.7690 C   0  0  0  0  0  0  0  0  0  0  0  0
   17.9080   75.4690   24.4540 C   0  0  0  0  0  0  0  0  0  0  0  0
   16.0920   77.1940   24.4280 C   0  0  0  0  0  0  0  0  0  0  0  0
   16.5956   73.6902   21.6384 H   0  0  0  0  0  0  0  0  0  0  0  0
   15.5117   74.2938   20.3393 H   0  0  0  0  0  0  0  0  0  0  0  0
   17.2508   74.7437   20.3393 H   0  0  0  0  0  0  0  0  0  0  0  0
   15.3991   76.4321   21.2287 H   0  0  0  0  0  0  0  0  0  0  0  0
   15.5750   75.4228   22.7380 H   0  0  0  0  0  0  0  0  0  0  0  0
   17.2384   77.5849   21.8058 H   0  0  0  0  0  0  0  0  0  0  0  0
   18.4386   75.0483   20.9991 H   0  0  0  0  0  0  0  0  0  0  0  0
   19.9251   77.2864   22.4844 H   0  0  0  0  0  0  0  0  0  0  0  0
   21.1670   76.0646   20.1770 H   0  0  0  0  0  0  0  0  0  0  0  0
   22.0649   76.2297   23.0898 H   0  0  0  0  0  0  0  0  0  0  0  0
   23.1480   75.7242   21.7490 H   0  0  0  0  0  0  0  0  0  0  0  0
   22.4263   77.3691   21.7490 H   0  0  0  0  0  0  0  0  0  0  0  0
   22.0114   73.9934   21.1945 H   0  0  0  0  0  0  0  0  0  0  0  0
   20.8878   73.5168   23.3180 H   0  0  0  0  0  0  0  0  0  0  0  0
   19.4553   74.4667   22.8586 H   0  0  0  0  0  0  0  0  0  0  0  0
   19.6986   71.6084   22.7955 H   0  0  0  0  0  0  0  0  0  0  0  0
   18.3695   72.5211   22.0973 H   0  0  0  0  0  0  0  0  0  0  0  0
   20.9539   71.5451   20.8114 H   0  0  0  0  0  0  0  0  0  0  0  0
   18.2462   71.5325   19.6382 H   0  0  0  0  0  0  0  0  0  0  0  0
   20.0676   69.5136   20.9918 H   0  0  0  0  0  0  0  0  0  0  0  0
   18.2988   69.8806   21.2706 H   0  0  0  0  0  0  0  0  0  0  0  0
   18.3648   67.7208   20.0641 H   0  0  0  0  0  0  0  0  0  0  0  0
   18.1417   66.6824   18.1014 H   0  0  0  0  0  0  0  0  0  0  0  0
   17.3522   67.8255   16.9298 H   0  0  0  0  0  0  0  0  0  0  0  0
   20.2128   66.8033   16.8678 H   0  0  0  0  0  0  0  0  0  0  0  0
   19.1190   66.2630   14.6170 H   0  0  0  0  0  0  0  0  0  0  0  0
   20.4757   68.0859   14.7996 H   0  0  0  0  0  0  0  0  0  0  0  0
   18.7918   68.7250   14.9751 H   0  0  0  0  0  0  0  0  0  0  0  0
   21.1471   69.2067   16.8468 H   0  0  0  0  0  0  0  0  0  0  0  0
   20.3302   70.3931   15.7115 H   0  0  0  0  0  0  0  0  0  0  0  0
   17.3303   71.0298   17.6693 H   0  0  0  0  0  0  0  0  0  0  0  0
   18.3237   71.5040   16.2498 H   0  0  0  0  0  0  0  0  0  0  0  0
   17.4484   69.9354   16.2498 H   0  0  0  0  0  0  0  0  0  0  0  0
   20.9620   70.4648   18.6876 H   0  0  0  0  0  0  0  0  0  0  0  0
   21.0749   72.1147   16.9981 H   0  0  0  0  0  0  0  0  0  0  0  0
   19.4434   72.7790   17.4958 H   0  0  0  0  0  0  0  0  0  0  0  0
   22.0371   72.8984   19.0864 H   0  0  0  0  0  0  0  0  0  0  0  0
   21.1509   74.2650   18.2859 H   0  0  0  0  0  0  0  0  0  0  0  0
   18.3639   74.5069   20.6469 H   0  0  0  0  0  0  0  0  0  0  0  0
   19.0993   75.1317   19.1318 H   0  0  0  0  0  0  0  0  0  0  0  0
   18.2506   73.5486   19.1318 H   0  0  0  0  0  0  0  0  0  0  0  0
   18.1244   77.5590   23.9141 H   0  0  0  0  0  0  0  0  0  0  0  0
   17.8580   75.5945   25.5457 H   0  0  0  0  0  0  0  0  0  0  0  0
   17.2808   74.6167   24.1538 H   0  0  0  0  0  0  0  0  0  0  0  0
   18.9495   75.2815   24.1538 H   0  0  0  0  0  0  0  0  0  0  0  0
   16.2008   77.1566   25.5220 H   0  0  0  0  0  0  0  0  0  0  0  0
   15.8603   78.2235   24.1176 H   0  0  0  0  0  0  0  0  0  0  0  0
   15.2759   76.5250   24.1176 H   0  0  0  0  0  0  0  0  0  0  0  0
  1  2  1  0
  2  3  1  0
  3  4  1  0
  4  5  2  0
  5  6  1  0
  6  7  1  0
  6  8  1  0
  8  9  1  0
  9 10  1  0
 10 11  1  0
 11 12  1  0
 12 13  1  0
 13 14  1  0
 14 15  2  0
 15 16  1  0
 16 17  1  0
 17 18  1  0
 17 19  1  0
 19 20  1  0
 20 21  1  0
 21 22  1  6
 21 23  1  0
 23 24  1  0
 24 25  1  0
 25 26  1  0
 26 27  1  6
  3 28  1  0
 28 29  1  0
 28 30  1  0
 26  8  1  0
 26 11  1  0
 23 12  1  0
 21 15  1  0
  1 31  1  0
  1 32  1  0
  1 33  1  0
  2 34  1  0
  2 35  1  0
  3 36  1  6
  4 37  1  0
  5 38  1  0
  6 39  1  6
  7 40  1  0
  7 41  1  0
  7 42  1  0
  8 43  1  1
  9 44  1  0
  9 45  1  0
 10 46  1  0
 10 47  1  0
 11 48  1  1
 12 49  1  6
 13 50  1  0
 13 51  1  0
 14 52  1  0
 16 53  1  0
 16 54  1  0
 17 55  1  1
 18 56  1  0
 19 57  1  0
 19 58  1  0
 20 59  1  0
 20 60  1  0
 22 61  1  0
 22 62  1  0
 22 63  1  0
 23 64  1  1
 24 65  1  0
 24 66  1  0
 25 67  1  0
 25 68  1  0
 27 69  1  0
 27 70  1  0
 27 71  1  0
 28 72  1  0
 29 73  1  0
 29 74  1  0
 29 75  1  0
 30 76  1  0
 30 77  1  0
 30 78  1  0
M  END
>  <meeko>  (7) 
{"is_sidechain": [false], "free_energy": -0.759, "intermolecular_energy": -3.222, "internal_energy": 1.372}

$$$$
MOL000449_docked
     RDKit          3D

 78 81  0  0  0  0  0  0  0  0999 V2000
   18.9310   67.1950   15.4440 C   0  0  0  0  0  0  0  0  0  0  0  0
   17.5420   67.8230   15.4520 C   0  0  0  0  0  0  0  0  0  0  0  0
   17.4840   69.1600   16.2240 C   0  0  2  0  0  0  0  0  0  0  0  0
   18.8670   69.7690   16.3350 C   0  0  0  0  0  0  0  0  0  0  0  0
   19.7410   69.4670   17.3090 C   0  0  0  0  0  0  0  0  0  0  0  0
   21.1190   70.0890   17.4310 C   0  0  1  0  0  0  0  0  0  0  0  0
   21.4080   70.8430   16.1310 C   0  0  0  0  0  0  0  0  0  0  0  0
   21.1950   70.9870   18.6930 C   0  0  1  0  0  0  0  0  0  0  0  0
   22.5650   71.7210   18.8020 C   0  0  0  0  0  0  0  0  0  0  0  0
   22.3060   73.0560   19.5140 C   0  0  0  0  0  0  0  0  0  0  0  0
   20.8660   72.9430   19.9910 C   0  0  1  0  0  0  0  0  0  0  0  0
   20.1360   74.2310   20.3860 C   0  0  2  0  0  0  0  0  0  0  0  0
   20.8950   74.9670   21.5020 C   0  0  0  0  0  0  0  0  0  0  0  0
   20.0790   76.0120   22.1940 C   0  0  0  0  0  0  0  0  0  0  0  0
   18.7440   76.1400   22.0840 C   0  0  0  0  0  0  0  0  0  0  0  0
   18.0270   77.2560   22.8150 C   0  0  0  0  0  0  0  0  0  0  0  0
   16.8240   76.7460   23.6120 C   0  0  1  0  0  0  0  0  0  0  0  0
   16.1010   77.8470   24.1610 O   0  0  0  0  0  0  0  0  0  0  0  0
   15.8900   75.9150   22.7360 C   0  0  0  0  0  0  0  0  0  0  0  0
   16.6360   74.7580   22.0730 C   0  0  0  0  0  0  0  0  0  0  0  0
   17.8820   75.1890   21.2410 C   0  0  1  0  0  0  0  0  0  0  0  0
   17.4180   75.9550   19.9800 C   0  0  0  0  0  0  0  0  0  0  0  0
   18.6950   73.8880   20.8580 C   0  0  1  0  0  0  0  0  0  0  0  0
   17.9590   72.9490   19.8680 C   0  0  0  0  0  0  0  0  0  0  0  0
   18.7880   71.7310   19.4270 C   0  0  0  0  0  0  0  0  0  0  0  0
   20.1620   72.1410   18.8690 C   0  0  2  0  0  0  0  0  0  0  0  0
   19.9900   72.9360   17.5520 C   0  0  0  0  0  0  0  0  0  0  0  0
   16.7860   68.9890   17.6060 C   0  0  0  0  0  0  0  0  0  0  0  0
   15.9890   70.2410   17.9940 C   0  0  0  0  0  0  0  0  0  0  0  0
   17.7310   68.6070   18.7500 C   0  0  0  0  0  0  0  0  0  0  0  0
   19.2701   67.0417   16.4792 H   0  0  0  0  0  0  0  0  0  0  0  0
   18.8926   66.2267   14.9235 H   0  0  0  0  0  0  0  0  0  0  0  0
   19.6326   67.8635   14.9235 H   0  0  0  0  0  0  0  0  0  0  0  0
   17.2350   68.0062   14.4117 H   0  0  0  0  0  0  0  0  0  0  0  0
   16.8680   67.1202   15.9636 H   0  0  0  0  0  0  0  0  0  0  0  0
   16.8637   69.8681   15.6549 H   0  0  0  0  0  0  0  0  0  0  0  0
   19.1731   70.5012   15.5733 H   0  0  0  0  0  0  0  0  0  0  0  0
   19.4397   68.7247   18.0628 H   0  0  0  0  0  0  0  0  0  0  0  0
   21.8961   69.3222   17.5655 H   0  0  0  0  0  0  0  0  0  0  0  0
   21.7925   71.8463   16.3667 H   0  0  0  0  0  0  0  0  0  0  0  0
   22.1582   70.2909   15.5459 H   0  0  0  0  0  0  0  0  0  0  0  0
   20.4809   70.9338   15.5459 H   0  0  0  0  0  0  0  0  0  0  0  0
   20.9922   70.2217   19.4566 H   0  0  0  0  0  0  0  0  0  0  0  0
   23.2732   71.1137   19.3848 H   0  0  0  0  0  0  0  0  0  0  0  0
   23.0010   71.8866   17.8058 H   0  0  0  0  0  0  0  0  0  0  0  0
   22.9911   73.1851   20.3649 H   0  0  0  0  0  0  0  0  0  0  0  0
   22.4690   73.9246   18.8591 H   0  0  0  0  0  0  0  0  0  0  0  0
   20.8464   72.4444   20.9713 H   0  0  0  0  0  0  0  0  0  0  0  0
   20.0869   74.8930   19.5089 H   0  0  0  0  0  0  0  0  0  0  0  0
   21.2180   74.2270   22.2491 H   0  0  0  0  0  0  0  0  0  0  0  0
   21.7438   75.4823   21.0286 H   0  0  0  0  0  0  0  0  0  0  0  0
   20.6086   76.7279   22.8398 H   0  0  0  0  0  0  0  0  0  0  0  0
   18.7332   77.7364   23.5082 H   0  0  0  0  0  0  0  0  0  0  0  0
   17.6564   77.9685   22.0633 H   0  0  0  0  0  0  0  0  0  0  0  0
   17.2036   76.1063   24.4224 H   0  0  0  0  0  0  0  0  0  0  0  0
   15.2080   77.8670   23.7830 H   0  0  0  0  0  0  0  0  0  0  0  0
   15.0802   75.5089   23.3599 H   0  0  0  0  0  0  0  0  0  0  0  0
   15.4839   76.5647   21.9467 H   0  0  0  0  0  0  0  0  0  0  0  0
   16.9705   74.0674   22.8612 H   0  0  0  0  0  0  0  0  0  0  0  0
   15.9319   74.2934   21.3670 H   0  0  0  0  0  0  0  0  0  0  0  0
   16.8699   76.8598   20.2816 H   0  0  0  0  0  0  0  0  0  0  0  0
   18.2952   76.2403   19.3808 H   0  0  0  0  0  0  0  0  0  0  0  0
   16.7588   75.3097   19.3808 H   0  0  0  0  0  0  0  0  0  0  0  0
   18.7774   73.3064   21.7880 H   0  0  0  0  0  0  0  0  0  0  0  0
   17.0414   72.5853   20.3535 H   0  0  0  0  0  0  0  0  0  0  0  0
   17.7540   73.5390   18.9625 H   0  0  0  0  0  0  0  0  0  0  0  0
   18.9392   71.0714   20.2942 H   0  0  0  0  0  0  0  0  0  0  0  0
   18.2361   71.2158   18.6270 H   0  0  0  0  0  0  0  0  0  0  0  0
   19.7627   73.9867   17.7850 H   0  0  0  0  0  0  0  0  0  0  0  0
   20.9204   72.8830   16.9676 H   0  0  0  0  0  0  0  0  0  0  0  0
   19.1647   72.5032   16.9676 H   0  0  0  0  0  0  0  0  0  0  0  0
   16.1014   68.1396   17.4650 H   0  0  0  0  0  0  0  0  0  0  0  0
   15.9394   70.3190   19.0901 H   0  0  0  0  0  0  0  0  0  0  0  0
   16.4857   71.1332   17.5851 H   0  0  0  0  0  0  0  0  0  0  0  0
   14.9704   70.1686   17.5851 H   0  0  0  0  0  0  0  0  0  0  0  0
   17.2393   68.8058   19.7137 H   0  0  0  0  0  0  0  0  0  0  0  0
   17.9795   67.5378   18.6788 H   0  0  0  0  0  0  0  0  0  0  0  0
   18.6527   69.2032   18.6788 H   0  0  0  0  0  0  0  0  0  0  0  0
  1  2  1  0
  2  3  1  0
  3  4  1  0
  4  5  2  0
  5  6  1  0
  6  7  1  0
  6  8  1  0
  8  9  1  0
  9 10  1  0
 10 11  1  0
 11 12  1  0
 12 13  1  0
 13 14  1  0
 14 15  2  0
 15 16  1  0
 16 17  1  0
 17 18  1  0
 17 19  1  0
 19 20  1  0
 20 21  1  0
 21 22  1  6
 21 23  1  0
 23 24  1  0
 24 25  1  0
 25 26  1  0
 26 27  1  6
  3 28  1  0
 28 29  1  0
 28 30  1  0
 26  8  1  0
 26 11  1  0
 23 12  1  0
 21 15  1  0
  1 31  1  0
  1 32  1  0
  1 33  1  0
  2 34  1  0
  2 35  1  0
  3 36  1  6
  4 37  1  0
  5 38  1  0
  6 39  1  1
  7 40  1  0
  7 41  1  0
  7 42  1  0
  8 43  1  1
  9 44  1  0
  9 45  1  0
 10 46  1  0
 10 47  1  0
 11 48  1  1
 12 49  1  6
 13 50  1  0
 13 51  1  0
 14 52  1  0
 16 53  1  0
 16 54  1  0
 17 55  1  1
 18 56  1  0
 19 57  1  0
 19 58  1  0
 20 59  1  0
 20 60  1  0
 22 61  1  0
 22 62  1  0
 22 63  1  0
 23 64  1  1
 24 65  1  0
 24 66  1  0
 25 67  1  0
 25 68  1  0
 27 69  1  0
 27 70  1  0
 27 71  1  0
 28 72  1  0
 29 73  1  0
 29 74  1  0
 29 75  1  0
 30 76  1  0
 30 77  1  0
 30 78  1  0
M  END
>  <meeko>  (8) 
{"is_sidechain": [false], "free_energy": -0.416, "intermolecular_energy": -2.27, "internal_energy": 0.874}

$$$$
MOL000449_docked
     RDKit          3D

 78 81  0  0  0  0  0  0  0  0999 V2000
   17.8100   62.0090   16.0500 C   0  0  0  0  0  0  0  0  0  0  0  0
   18.9260   63.0030   15.7420 C   0  0  0  0  0  0  0  0  0  0  0  0
   19.0460   64.1270   16.7950 C   0  0  2  0  0  0  0  0  0  0  0  0
   19.3740   65.4470   16.1260 C   0  0  0  0  0  0  0  0  0  0  0  0
   18.9960   66.6430   16.6070 C   0  0  0  0  0  0  0  0  0  0  0  0
   19.3090   67.9640   15.9300 C   0  0  1  0  0  0  0  0  0  0  0  0
   18.9890   67.8120   14.4420 C   0  0  0  0  0  0  0  0  0  0  0  0
   18.5280   69.1170   16.6130 C   0  0  1  0  0  0  0  0  0  0  0  0
   17.1000   68.6740   17.0480 C   0  0  0  0  0  0  0  0  0  0  0  0
   16.7340   69.4890   18.2960 C   0  0  0  0  0  0  0  0  0  0  0  0
   17.8470   70.5220   18.3960 C   0  0  1  0  0  0  0  0  0  0  0  0
   18.0370   71.2480   19.7330 C   0  0  2  0  0  0  0  0  0  0  0  0
   16.7470   71.9730   20.1470 C   0  0  0  0  0  0  0  0  0  0  0  0
   16.9510   72.9920   21.2230 C   0  0  0  0  0  0  0  0  0  0  0  0
   18.1490   73.4600   21.6190 C   0  0  0  0  0  0  0  0  0  0  0  0
   18.2330   74.4750   22.7390 C   0  0  0  0  0  0  0  0  0  0  0  0
   19.0990   75.6800   22.3640 C   0  0  1  0  0  0  0  0  0  0  0  0
   19.2650   76.5320   23.4950 O   0  0  0  0  0  0  0  0  0  0  0  0
   20.4700   75.2410   21.8570 C   0  0  0  0  0  0  0  0  0  0  0  0
   20.3430   74.2720   20.6820 C   0  0  0  0  0  0  0  0  0  0  0  0
   19.4710   73.0140   20.9770 C   0  0  1  0  0  0  0  0  0  0  0  0
   20.2090   72.1030   21.9860 C   0  0  0  0  0  0  0  0  0  0  0  0
   19.2050   72.2650   19.6100 C   0  0  1  0  0  0  0  0  0  0  0  0
   20.4720   71.6340   18.9770 C   0  0  0  0  0  0  0  0  0  0  0  0
   20.1960   70.8290   17.6960 C   0  0  0  0  0  0  0  0  0  0  0  0
   19.1050   69.7650   17.9080 C   0  0  2  0  0  0  0  0  0  0  0  0
   19.6000   68.6810   18.8960 C   0  0  0  0  0  0  0  0  0  0  0  0
   20.0570   63.7500   17.9170 C   0  0  0  0  0  0  0  0  0  0  0  0
   20.8700   62.5020   17.5500 C   0  0  0  0  0  0  0  0  0  0  0  0
   19.4270   63.5620   19.3010 C   0  0  0  0  0  0  0  0  0  0  0  0
   17.6982   61.9094   17.1398 H   0  0  0  0  0  0  0  0  0  0  0  0
   16.8663   62.3712   15.6161 H   0  0  0  0  0  0  0  0  0  0  0  0
   18.0610   61.0298   15.6161 H   0  0  0  0  0  0  0  0  0  0  0  0
   19.8800   62.4568   15.7031 H   0  0  0  0  0  0  0  0  0  0  0  0
   18.6839   63.4795   14.7806 H   0  0  0  0  0  0  0  0  0  0  0  0
   18.0723   64.2492   17.2919 H   0  0  0  0  0  0  0  0  0  0  0  0
   19.9553   65.4243   15.1924 H   0  0  0  0  0  0  0  0  0  0  0  0
   18.4258   66.6658   17.5474 H   0  0  0  0  0  0  0  0  0  0  0  0
   20.3726   68.2265   16.0298 H   0  0  0  0  0  0  0  0  0  0  0  0
   18.0010   67.3427   14.3255 H   0  0  0  0  0  0  0  0  0  0  0  0
   18.9826   68.8033   13.9652 H   0  0  0  0  0  0  0  0  0  0  0  0
   19.7533   67.1807   13.9652 H   0  0  0  0  0  0  0  0  0  0  0  0
   18.5805   69.8582   15.8020 H   0  0  0  0  0  0  0  0  0  0  0  0
   16.3803   68.8762   16.2411 H   0  0  0  0  0  0  0  0  0  0  0  0
   17.0738   67.5957   17.2636 H   0  0  0  0  0  0  0  0  0  0  0  0
   15.7563   69.9775   18.1719 H   0  0  0  0  0  0  0  0  0  0  0  0
   16.6489   68.8673   19.1995 H   0  0  0  0  0  0  0  0  0  0  0  0
   17.5885   71.3951   17.7789 H   0  0  0  0  0  0  0  0  0  0  0  0
   18.2776   70.5056   20.5082 H   0  0  0  0  0  0  0  0  0  0  0  0
   16.3337   72.4795   19.2624 H   0  0  0  0  0  0  0  0  0  0  0  0
   16.0641   71.2108   20.5502 H   0  0  0  0  0  0  0  0  0  0  0  0
   16.0569   73.3875   21.7271 H   0  0  0  0  0  0  0  0  0  0  0  0
   17.2180   74.8278   22.9741 H   0  0  0  0  0  0  0  0  0  0  0  0
   18.6970   73.9828   23.6065 H   0  0  0  0  0  0  0  0  0  0  0  0
   18.5864   76.2251   21.5577 H   0  0  0  0  0  0  0  0  0  0  0  0
   18.4680   77.0720   23.6140 H   0  0  0  0  0  0  0  0  0  0  0  0
   21.0324   76.1283   21.5307 H   0  0  0  0  0  0  0  0  0  0  0  0
   20.9949   74.7272   22.6758 H   0  0  0  0  0  0  0  0  0  0  0  0
   19.8920   74.8129   19.8370 H   0  0  0  0  0  0  0  0  0  0  0  0
   21.3577   73.9071   20.4646 H   0  0  0  0  0  0  0  0  0  0  0  0
   19.9581   72.4127   23.0112 H   0  0  0  0  0  0  0  0  0  0  0  0
   19.8990   71.0589   21.8321 H   0  0  0  0  0  0  0  0  0  0  0  0
   21.2947   72.1896   21.8321 H   0  0  0  0  0  0  0  0  0  0  0  0
   18.8950   73.0453   18.8994 H   0  0  0  0  0  0  0  0  0  0  0  0
   21.1761   72.4430   18.7323 H   0  0  0  0  0  0  0  0  0  0  0  0
   20.8789   70.9276   19.7155 H   0  0  0  0  0  0  0  0  0  0  0  0
   19.8689   71.5205   16.9055 H   0  0  0  0  0  0  0  0  0  0  0  0
   21.1246   70.3118   17.4129 H   0  0  0  0  0  0  0  0  0  0  0  0
   19.4423   69.0264   19.9284 H   0  0  0  0  0  0  0  0  0  0  0  0
   19.0377   67.7501   18.7308 H   0  0  0  0  0  0  0  0  0  0  0  0
   20.6717   68.4962   18.7308 H   0  0  0  0  0  0  0  0  0  0  0  0
   20.7237   64.6220   17.9883 H   0  0  0  0  0  0  0  0  0  0  0  0
   21.1998   61.9958   18.4693 H   0  0  0  0  0  0  0  0  0  0  0  0
   20.2441   61.8174   16.9588 H   0  0  0  0  0  0  0  0  0  0  0  0
   21.7492   62.7979   16.9588 H   0  0  0  0  0  0  0  0  0  0  0  0
   20.1739   63.7849   20.0772 H   0  0  0  0  0  0  0  0  0  0  0  0
   18.5706   64.2437   19.4097 H   0  0  0  0  0  0  0  0  0  0  0  0
   19.0842   62.5224   19.4097 H   0  0  0  0  0  0  0  0  0  0  0  0
  1  2  1  0
  2  3  1  0
  3  4  1  0
  4  5  2  0
  5  6  1  0
  6  7  1  0
  6  8  1  0
  8  9  1  0
  9 10  1  0
 10 11  1  0
 11 12  1  0
 12 13  1  0
 13 14  1  0
 14 15  2  0
 15 16  1  0
 16 17  1  0
 17 18  1  0
 17 19  1  0
 19 20  1  0
 20 21  1  0
 21 22  1  1
 21 23  1  0
 23 24  1  0
 24 25  1  0
 25 26  1  0
 26 27  1  1
  3 28  1  0
 28 29  1  0
 28 30  1  0
 26  8  1  0
 26 11  1  0
 23 12  1  0
 21 15  1  0
  1 31  1  0
  1 32  1  0
  1 33  1  0
  2 34  1  0
  2 35  1  0
  3 36  1  1
  4 37  1  0
  5 38  1  0
  6 39  1  6
  7 40  1  0
  7 41  1  0
  7 42  1  0
  8 43  1  6
  9 44  1  0
  9 45  1  0
 10 46  1  0
 10 47  1  0
 11 48  1  6
 12 49  1  1
 13 50  1  0
 13 51  1  0
 14 52  1  0
 16 53  1  0
 16 54  1  0
 17 55  1  6
 18 56  1  0
 19 57  1  0
 19 58  1  0
 20 59  1  0
 20 60  1  0
 22 61  1  0
 22 62  1  0
 22 63  1  0
 23 64  1  6
 24 65  1  0
 24 66  1  0
 25 67  1  0
 25 68  1  0
 27 69  1  0
 27 70  1  0
 27 71  1  0
 28 72  1  0
 29 73  1  0
 29 74  1  0
 29 75  1  0
 30 76  1  0
 30 77  1  0
 30 78  1  0
M  END
>  <meeko>  (9) 
{"is_sidechain": [false], "free_energy": -0.343, "intermolecular_energy": -0.732, "internal_energy": -0.567}

$$$$
MOL000449_docked
     RDKit          3D

 78 81  0  0  0  0  0  0  0  0999 V2000
   17.8620   62.2710   15.7250 C   0  0  0  0  0  0  0  0  0  0  0  0
   19.0180   63.2590   15.6100 C   0  0  0  0  0  0  0  0  0  0  0  0
   19.1220   64.2180   16.8170 C   0  0  2  0  0  0  0  0  0  0  0  0
   19.3760   65.6360   16.3480 C   0  0  0  0  0  0  0  0  0  0  0  0
   19.0180   66.7290   17.0430 C   0  0  0  0  0  0  0  0  0  0  0  0
   19.2560   68.1490   16.5670 C   0  0  1  0  0  0  0  0  0  0  0  0
   17.9550   68.6550   15.9390 C   0  0  0  0  0  0  0  0  0  0  0  0
   19.7570   69.0320   17.7380 C   0  0  1  0  0  0  0  0  0  0  0  0
   21.2760   69.3550   17.6140 C   0  0  0  0  0  0  0  0  0  0  0  0
   21.5000   70.7330   18.2530 C   0  0  0  0  0  0  0  0  0  0  0  0
   20.1690   71.0460   18.9190 C   0  0  1  0  0  0  0  0  0  0  0  0
   19.8850   72.5000   19.3110 C   0  0  2  0  0  0  0  0  0  0  0  0
   20.9700   73.0310   20.2600 C   0  0  0  0  0  0  0  0  0  0  0  0
   20.5810   74.2870   20.9740 C   0  0  0  0  0  0  0  0  0  0  0  0
   19.3310   74.7820   21.0290 C   0  0  0  0  0  0  0  0  0  0  0  0
   19.0610   76.0790   21.7620 C   0  0  0  0  0  0  0  0  0  0  0  0
   17.8940   75.9570   22.7440 C   0  0  1  0  0  0  0  0  0  0  0  0
   17.5870   77.2340   23.2990 O   0  0  0  0  0  0  0  0  0  0  0  0
   16.6510   75.3920   22.0610 C   0  0  0  0  0  0  0  0  0  0  0  0
   16.9470   74.0500   21.3930 C   0  0  0  0  0  0  0  0  0  0  0  0
   18.1290   74.0830   20.3770 C   0  0  1  0  0  0  0  0  0  0  0  0
   17.7130   74.9050   19.1340 C   0  0  0  0  0  0  0  0  0  0  0  0
   18.4890   72.5930   19.9890 C   0  0  1  0  0  0  0  0  0  0  0  0
   17.3880   71.8660   19.1750 C   0  0  0  0  0  0  0  0  0  0  0  0
   17.7790   70.4490   18.7210 C   0  0  0  0  0  0  0  0  0  0  0  0
   19.1170   70.4360   17.9610 C   0  0  2  0  0  0  0  0  0  0  0  0
   18.9800   71.2010   16.6230 C   0  0  0  0  0  0  0  0  0  0  0  0
   20.1790   63.7230   17.8470 C   0  0  0  0  0  0  0  0  0  0  0  0
   20.8780   62.4430   17.3700 C   0  0  0  0  0  0  0  0  0  0  0  0
   19.6330   63.5100   19.2630 C   0  0  0  0  0  0  0  0  0  0  0  0
   17.6435   62.0843   16.7868 H   0  0  0  0  0  0  0  0  0  0  0  0
   16.9708   62.6908   15.2356 H   0  0  0  0  0  0  0  0  0  0  0  0
   18.1379   61.3253   15.2356 H   0  0  0  0  0  0  0  0  0  0  0  0
   19.9569   62.6910   15.5329 H   0  0  0  0  0  0  0  0  0  0  0  0
   18.8333   63.8755   14.7179 H   0  0  0  0  0  0  0  0  0  0  0  0
   18.1584   64.2213   17.3475 H   0  0  0  0  0  0  0  0  0  0  0  0
   19.8830   65.7792   15.3824 H   0  0  0  0  0  0  0  0  0  0  0  0
   18.5230   66.5851   18.0147 H   0  0  0  0  0  0  0  0  0  0  0  0
   20.0473   68.1908   15.8040 H   0  0  0  0  0  0  0  0  0  0  0  0
   17.2468   68.9304   16.7344 H   0  0  0  0  0  0  0  0  0  0  0  0
   18.1672   69.5362   15.3157 H   0  0  0  0  0  0  0  0  0  0  0  0
   17.5161   67.8620   15.3157 H   0  0  0  0  0  0  0  0  0  0  0  0
   19.4652   68.3810   18.5753 H   0  0  0  0  0  0  0  0  0  0  0  0
   21.8678   68.5934   18.1430 H   0  0  0  0  0  0  0  0  0  0  0  0
   21.5902   69.3573   16.5598 H   0  0  0  0  0  0  0  0  0  0  0  0
   22.3100   70.6931   18.9961 H   0  0  0  0  0  0  0  0  0  0  0  0
   21.7989   71.4975   17.5207 H   0  0  0  0  0  0  0  0  0  0  0  0
   20.1561   70.6067   19.9274 H   0  0  0  0  0  0  0  0  0  0  0  0
   19.8922   73.1190   18.4017 H   0  0  0  0  0  0  0  0  0  0  0  0
   21.1841   72.2564   21.0111 H   0  0  0  0  0  0  0  0  0  0  0  0
   21.8484   73.2705   19.6427 H   0  0  0  0  0  0  0  0  0  0  0  0
   21.3744   74.8463   21.4915 H   0  0  0  0  0  0  0  0  0  0  0  0
   19.9648   76.3651   22.3199 H   0  0  0  0  0  0  0  0  0  0  0  0
   18.7941   76.8399   21.0138 H   0  0  0  0  0  0  0  0  0  0  0  0
   18.1987   75.2656   23.5435 H   0  0  0  0  0  0  0  0  0  0  0  0
   18.3640   77.5790   23.7670 H   0  0  0  0  0  0  0  0  0  0  0  0
   15.8612   75.2513   22.8136 H   0  0  0  0  0  0  0  0  0  0  0  0
   16.3274   76.1021   21.2858 H   0  0  0  0  0  0  0  0  0  0  0  0
   17.1897   73.3203   22.1796 H   0  0  0  0  0  0  0  0  0  0  0  0
   16.0479   73.7796   20.8198 H   0  0  0  0  0  0  0  0  0  0  0  0
   17.2382   75.8432   19.4570 H   0  0  0  0  0  0  0  0  0  0  0  0
   18.6039   75.1337   18.5307 H   0  0  0  0  0  0  0  0  0  0  0  0
   17.0012   74.3225   18.5307 H   0  0  0  0  0  0  0  0  0  0  0  0
   18.5421   72.0434   20.9404 H   0  0  0  0  0  0  0  0  0  0  0  0
   16.4866   71.7923   19.8011 H   0  0  0  0  0  0  0  0  0  0  0  0
   17.2227   72.4584   18.2630 H   0  0  0  0  0  0  0  0  0  0  0  0
   17.8678   69.8039   19.6075 H   0  0  0  0  0  0  0  0  0  0  0  0
   16.9973   70.0828   18.0392 H   0  0  0  0  0  0  0  0  0  0  0  0
   18.7894   72.2650   16.8268 H   0  0  0  0  0  0  0  0  0  0  0  0
   19.9107   71.0992   16.0455 H   0  0  0  0  0  0  0  0  0  0  0  0
   18.1425   70.7826   16.0455 H   0  0  0  0  0  0  0  0  0  0  0  0
   20.9068   64.5455   17.9080 H   0  0  0  0  0  0  0  0  0  0  0  0
   21.1995   61.8542   18.2417 H   0  0  0  0  0  0  0  0  0  0  0  0
   20.1795   61.8481   16.7632 H   0  0  0  0  0  0  0  0  0  0  0  0
   21.7560   62.7091   16.7632 H   0  0  0  0  0  0  0  0  0  0  0  0
   20.3951   63.8073   19.9984 H   0  0  0  0  0  0  0  0  0  0  0  0
   18.7296   64.1216   19.4035 H   0  0  0  0  0  0  0  0  0  0  0  0
   19.3824   62.4482   19.4035 H   0  0  0  0  0  0  0  0  0  0  0  0
  1  2  1  0
  2  3  1  0
  3  4  1  0
  4  5  2  0
  5  6  1  0
  6  7  1  0
  6  8  1  0
  8  9  1  0
  9 10  1  0
 10 11  1  0
 11 12  1  0
 12 13  1  0
 13 14  1  0
 14 15  2  0
 15 16  1  0
 16 17  1  0
 17 18  1  0
 17 19  1  0
 19 20  1  0
 20 21  1  0
 21 22  1  6
 21 23  1  0
 23 24  1  0
 24 25  1  0
 25 26  1  0
 26 27  1  6
  3 28  1  0
 28 29  1  0
 28 30  1  0
 26  8  1  0
 26 11  1  0
 23 12  1  0
 21 15  1  0
  1 31  1  0
  1 32  1  0
  1 33  1  0
  2 34  1  0
  2 35  1  0
  3 36  1  1
  4 37  1  0
  5 38  1  0
  6 39  1  6
  7 40  1  0
  7 41  1  0
  7 42  1  0
  8 43  1  1
  9 44  1  0
  9 45  1  0
 10 46  1  0
 10 47  1  0
 11 48  1  1
 12 49  1  6
 13 50  1  0
 13 51  1  0
 14 52  1  0
 16 53  1  0
 16 54  1  0
 17 55  1  1
 18 56  1  0
 19 57  1  0
 19 58  1  0
 20 59  1  0
 20 60  1  0
 22 61  1  0
 22 62  1  0
 22 63  1  0
 23 64  1  1
 24 65  1  0
 24 66  1  0
 25 67  1  0
 25 68  1  0
 27 69  1  0
 27 70  1  0
 27 71  1  0
 28 72  1  0
 29 73  1  0
 29 74  1  0
 29 75  1  0
 30 76  1  0
 30 77  1  0
 30 78  1  0
M  END
>  <meeko>  (10) 
{"is_sidechain": [false], "free_energy": 0.007, "intermolecular_energy": -1.048, "internal_energy": 0.212}

$$$$
MOL000449_docked
     RDKit          3D

 78 81  0  0  0  0  0  0  0  0999 V2000
   16.8850   69.7230   18.4430 C   0  0  0  0  0  0  0  0  0  0  0  0
   17.1950   68.5980   17.4620 C   0  0  0  0  0  0  0  0  0  0  0  0
   18.7090   68.3660   17.2610 C   0  0  2  0  0  0  0  0  0  0  0  0
   19.4980   69.5700   17.7360 C   0  0  0  0  0  0  0  0  0  0  0  0
   20.8110   69.7400   17.5090 C   0  0  0  0  0  0  0  0  0  0  0  0
   21.6060   70.9360   17.9980 C   0  0  1  0  0  0  0  0  0  0  0  0
   22.7620   71.1590   17.0220 C   0  0  0  0  0  0  0  0  0  0  0  0
   20.6810   72.1720   18.1480 C   0  0  1  0  0  0  0  0  0  0  0  0
   19.4430   72.0900   17.2060 C   0  0  0  0  0  0  0  0  0  0  0  0
   18.2930   72.8250   17.9070 C   0  0  0  0  0  0  0  0  0  0  0  0
   18.9590   73.4940   19.0990 C   0  0  1  0  0  0  0  0  0  0  0  0
   18.0640   73.9810   20.2440 C   0  0  2  0  0  0  0  0  0  0  0  0
   17.0150   74.9790   19.7290 C   0  0  0  0  0  0  0  0  0  0  0  0
   16.3580   75.7720   20.8140 C   0  0  0  0  0  0  0  0  0  0  0  0
   16.7970   75.8450   22.0840 C   0  0  0  0  0  0  0  0  0  0  0  0
   16.0340   76.6630   23.1040 C   0  0  0  0  0  0  0  0  0  0  0  0
   16.9430   77.6190   23.8780 C   0  0  1  0  0  0  0  0  0  0  0  0
   16.2070   78.2570   24.9200 O   0  0  0  0  0  0  0  0  0  0  0  0
   18.1370   76.8830   24.4810 C   0  0  0  0  0  0  0  0  0  0  0  0
   18.9220   76.1280   23.4100 C   0  0  0  0  0  0  0  0  0  0  0  0
   18.0680   75.1320   22.5680 C   0  0  1  0  0  0  0  0  0  0  0  0
   17.6390   73.9440   23.4600 C   0  0  0  0  0  0  0  0  0  0  0  0
   18.9400   74.6470   21.3410 C   0  0  1  0  0  0  0  0  0  0  0  0
   20.1570   73.7710   21.7370 C   0  0  0  0  0  0  0  0  0  0  0  0
   20.9500   73.2250   20.5370 C   0  0  0  0  0  0  0  0  0  0  0  0
   20.0460   72.4830   19.5370 C   0  0  2  0  0  0  0  0  0  0  0  0
   19.4740   71.1990   20.1850 C   0  0  0  0  0  0  0  0  0  0  0  0
   19.0350   67.9710   15.7900 C   0  0  0  0  0  0  0  0  0  0  0  0
   17.9110   68.3860   14.8330 C   0  0  0  0  0  0  0  0  0  0  0  0
   19.3580   66.4870   15.5900 C   0  0  0  0  0  0  0  0  0  0  0  0
   16.9877   69.3502   19.4728 H   0  0  0  0  0  0  0  0  0  0  0  0
   17.5877   70.5539   18.2820 H   0  0  0  0  0  0  0  0  0  0  0  0
   15.8559   70.0767   18.2820 H   0  0  0  0  0  0  0  0  0  0  0  0
   16.7464   67.6686   17.8427 H   0  0  0  0  0  0  0  0  0  0  0  0
   16.7767   68.8896   16.4873 H   0  0  0  0  0  0  0  0  0  0  0  0
   19.0186   67.5114   17.8806 H   0  0  0  0  0  0  0  0  0  0  0  0
   18.9644   70.3497   18.2993 H   0  0  0  0  0  0  0  0  0  0  0  0
   21.3412   68.9662   16.9345 H   0  0  0  0  0  0  0  0  0  0  0  0
   22.0279   70.7573   18.9980 H   0  0  0  0  0  0  0  0  0  0  0  0
   23.6891   71.3378   17.5864 H   0  0  0  0  0  0  0  0  0  0  0  0
   22.8843   70.2679   16.3888 H   0  0  0  0  0  0  0  0  0  0  0  0
   22.5441   72.0317   16.3888 H   0  0  0  0  0  0  0  0  0  0  0  0
   21.4144   72.9589   17.9182 H   0  0  0  0  0  0  0  0  0  0  0  0
   19.6685   72.5729   16.2437 H   0  0  0  0  0  0  0  0  0  0  0  0
   19.1731   71.0428   17.0045 H   0  0  0  0  0  0  0  0  0  0  0  0
   17.8425   73.5740   17.2391 H   0  0  0  0  0  0  0  0  0  0  0  0
   17.4754   72.1505   18.2013 H   0  0  0  0  0  0  0  0  0  0  0  0
   19.3612   74.4699   18.7893 H   0  0  0  0  0  0  0  0  0  0  0  0
   17.5352   73.1165   20.6717 H   0  0  0  0  0  0  0  0  0  0  0  0
   17.5098   75.6779   19.0386 H   0  0  0  0  0  0  0  0  0  0  0  0
   16.2261   74.3916   19.2365 H   0  0  0  0  0  0  0  0  0  0  0  0
   15.4501   76.3365   20.5549 H   0  0  0  0  0  0  0  0  0  0  0  0
   15.2646   77.2510   22.5821 H   0  0  0  0  0  0  0  0  0  0  0  0
   15.5850   75.9660   23.8269 H   0  0  0  0  0  0  0  0  0  0  0  0
   17.3181   78.3729   23.1702 H   0  0  0  0  0  0  0  0  0  0  0  0
   15.3150   77.8810   24.9630 H   0  0  0  0  0  0  0  0  0  0  0  0
   18.8019   77.6141   24.9641 H   0  0  0  0  0  0  0  0  0  0  0  0
   17.7614   76.1544   25.2146 H   0  0  0  0  0  0  0  0  0  0  0  0
   19.3658   76.8653   22.7248 H   0  0  0  0  0  0  0  0  0  0  0  0
   19.6757   75.5262   23.9388 H   0  0  0  0  0  0  0  0  0  0  0  0
   17.7405   74.2250   24.5187 H   0  0  0  0  0  0  0  0  0  0  0  0
   16.5909   73.6860   23.2479 H   0  0  0  0  0  0  0  0  0  0  0  0
   18.2804   73.0759   23.2479 H   0  0  0  0  0  0  0  0  0  0  0  0
   19.3787   75.5587   20.9093 H   0  0  0  0  0  0  0  0  0  0  0  0
   20.8358   74.3795   22.3526 H   0  0  0  0  0  0  0  0  0  0  0  0
   19.7601   72.9004   22.2797 H   0  0  0  0  0  0  0  0  0  0  0  0
   21.4357   74.0659   20.0202 H   0  0  0  0  0  0  0  0  0  0  0  0
   21.6930   72.5093   20.9186 H   0  0  0  0  0  0  0  0  0  0  0  0
   19.5152   71.2914   21.2803 H   0  0  0  0  0  0  0  0  0  0  0  0
   18.4297   71.0620   19.8676 H   0  0  0  0  0  0  0  0  0  0  0  0
   20.0706   70.3310   19.8676 H   0  0  0  0  0  0  0  0  0  0  0  0
   19.9527   68.5288   15.5519 H   0  0  0  0  0  0  0  0  0  0  0  0
   17.0351   68.7094   15.4145 H   0  0  0  0  0  0  0  0  0  0  0  0
   18.2569   69.2157   14.1990 H   0  0  0  0  0  0  0  0  0  0  0  0
   17.6347   67.5306   14.1990 H   0  0  0  0  0  0  0  0  0  0  0  0
   19.4641   65.9995   16.5703 H   0  0  0  0  0  0  0  0  0  0  0  0
   18.5433   66.0069   15.0280 H   0  0  0  0  0  0  0  0  0  0  0  0
   20.2985   66.3890   15.0280 H   0  0  0  0  0  0  0  0  0  0  0  0
  1  2  1  0
  2  3  1  0
  3  4  1  0
  4  5  2  0
  5  6  1  0
  6  7  1  0
  6  8  1  0
  8  9  1  0
  9 10  1  0
 10 11  1  0
 11 12  1  0
 12 13  1  0
 13 14  1  0
 14 15  2  0
 15 16  1  0
 16 17  1  0
 17 18  1  0
 17 19  1  0
 19 20  1  0
 20 21  1  0
 21 22  1  1
 21 23  1  0
 23 24  1  0
 24 25  1  0
 25 26  1  0
 26 27  1  1
  3 28  1  0
 28 29  1  0
 28 30  1  0
 26  8  1  0
 26 11  1  0
 23 12  1  0
 21 15  1  0
  1 31  1  0
  1 32  1  0
  1 33  1  0
  2 34  1  0
  2 35  1  0
  3 36  1  1
  4 37  1  0
  5 38  1  0
  6 39  1  1
  7 40  1  0
  7 41  1  0
  7 42  1  0
  8 43  1  6
  9 44  1  0
  9 45  1  0
 10 46  1  0
 10 47  1  0
 11 48  1  6
 12 49  1  1
 13 50  1  0
 13 51  1  0
 14 52  1  0
 16 53  1  0
 16 54  1  0
 17 55  1  6
 18 56  1  0
 19 57  1  0
 19 58  1  0
 20 59  1  0
 20 60  1  0
 22 61  1  0
 22 62  1  0
 22 63  1  0
 23 64  1  6
 24 65  1  0
 24 66  1  0
 25 67  1  0
 25 68  1  0
 27 69  1  0
 27 70  1  0
 27 71  1  0
 28 72  1  0
 29 73  1  0
 29 74  1  0
 29 75  1  0
 30 76  1  0
 30 77  1  0
 30 78  1  0
M  END
>  <meeko>  (11) 
{"is_sidechain": [false], "free_energy": 1.911, "intermolecular_energy": 1.183, "internal_energy": 0.496}

$$$$
MOL000449_docked
     RDKit          3D

 78 81  0  0  0  0  0  0  0  0999 V2000
   14.5180   83.0010   24.3160 C   0  0  0  0  0  0  0  0  0  0  0  0
   15.3810   81.8700   24.8650 C   0  0  0  0  0  0  0  0  0  0  0  0
   16.3090   81.2420   23.8010 C   0  0  2  0  0  0  0  0  0  0  0  0
   16.5790   79.7870   24.1250 C   0  0  0  0  0  0  0  0  0  0  0  0
   17.0700   78.9030   23.2410 C   0  0  0  0  0  0  0  0  0  0  0  0
   17.3240   77.4410   23.5590 C   0  0  1  0  0  0  0  0  0  0  0  0
   15.9650   76.7540   23.7080 C   0  0  0  0  0  0  0  0  0  0  0  0
   18.2200   76.8010   22.4670 C   0  0  1  0  0  0  0  0  0  0  0  0
   19.7340   76.9130   22.8190 C   0  0  0  0  0  0  0  0  0  0  0  0
   20.4320   75.6920   22.2060 C   0  0  0  0  0  0  0  0  0  0  0  0
   19.3570   75.0540   21.3390 C   0  0  1  0  0  0  0  0  0  0  0  0
   19.5610   73.6020   20.8920 C   0  0  2  0  0  0  0  0  0  0  0  0
   20.8770   73.4520   20.1130 C   0  0  0  0  0  0  0  0  0  0  0  0
   20.9710   72.1780   19.3340 C   0  0  0  0  0  0  0  0  0  0  0  0
   19.9370   71.3550   19.0820 C   0  0  0  0  0  0  0  0  0  0  0  0
   20.1580   70.0770   18.3000 C   0  0  0  0  0  0  0  0  0  0  0  0
   19.1580   69.9200   17.1530 C   0  0  1  0  0  0  0  0  0  0  0  0
   19.3140   68.6400   16.5420 O   0  0  0  0  0  0  0  0  0  0  0  0
   17.7210   70.0730   17.6440 C   0  0  0  0  0  0  0  0  0  0  0  0
   17.5210   71.4050   18.3650 C   0  0  0  0  0  0  0  0  0  0  0  0
   18.5040   71.6500   19.5500 C   0  0  1  0  0  0  0  0  0  0  0  0
   18.1680   70.6770   20.7040 C   0  0  0  0  0  0  0  0  0  0  0  0
   18.3630   73.1580   20.0060 C   0  0  1  0  0  0  0  0  0  0  0  0
   16.9950   73.4990   20.6500 C   0  0  0  0  0  0  0  0  0  0  0  0
   16.8940   74.9410   21.1760 C   0  0  0  0  0  0  0  0  0  0  0  0
   18.0480   75.2880   22.1320 C   0  0  2  0  0  0  0  0  0  0  0  0
   17.9450   74.4430   23.4240 C   0  0  0  0  0  0  0  0  0  0  0  0
   17.6140   82.0740   23.6220 C   0  0  0  0  0  0  0  0  0  0  0  0
   18.0010   82.8020   24.9150 C   0  0  0  0  0  0  0  0  0  0  0  0
   17.5730   83.0750   22.4620 C   0  0  0  0  0  0  0  0  0  0  0  0
   14.0840   83.5698   25.1515 H   0  0  0  0  0  0  0  0  0  0  0  0
   15.1378   83.6694   23.7002 H   0  0  0  0  0  0  0  0  0  0  0  0
   13.7097   82.5797   23.7002 H   0  0  0  0  0  0  0  0  0  0  0  0
   16.0029   82.2686   25.6801 H   0  0  0  0  0  0  0  0  0  0  0  0
   14.7008   81.0790   25.2138 H   0  0  0  0  0  0  0  0  0  0  0  0
   15.7961   81.2667   22.8282 H   0  0  0  0  0  0  0  0  0  0  0  0
   16.3602   79.4339   25.1436 H   0  0  0  0  0  0  0  0  0  0  0  0
   17.3017   79.2598   22.2266 H   0  0  0  0  0  0  0  0  0  0  0  0
   17.8765   77.3235   24.5029 H   0  0  0  0  0  0  0  0  0  0  0  0
   15.7295   76.6349   24.7759 H   0  0  0  0  0  0  0  0  0  0  0  0
   15.1891   77.3681   23.2276 H   0  0  0  0  0  0  0  0  0  0  0  0
   15.9995   75.7650   23.2276 H   0  0  0  0  0  0  0  0  0  0  0  0
   17.8774   77.3884   21.6024 H   0  0  0  0  0  0  0  0  0  0  0  0
   20.1521   77.8383   22.3960 H   0  0  0  0  0  0  0  0  0  0  0  0
   19.8812   76.9416   23.9087 H   0  0  0  0  0  0  0  0  0  0  0  0
   21.2950   75.9992   21.5969 H   0  0  0  0  0  0  0  0  0  0  0  0
   20.8281   75.0032   22.9666 H   0  0  0  0  0  0  0  0  0  0  0  0
   19.3642   75.5272   20.3460 H   0  0  0  0  0  0  0  0  0  0  0  0
   19.6146   72.9610   21.7843 H   0  0  0  0  0  0  0  0  0  0  0  0
   20.9641   74.2953   19.4121 H   0  0  0  0  0  0  0  0  0  0  0  0
   21.6901   73.4375   20.8537 H   0  0  0  0  0  0  0  0  0  0  0  0
   21.9573   71.8936   18.9386 H   0  0  0  0  0  0  0  0  0  0  0  0
   21.1759   70.0885   17.8832 H   0  0  0  0  0  0  0  0  0  0  0  0
   20.0165   69.2313   18.9890 H   0  0  0  0  0  0  0  0  0  0  0  0
   19.3619   70.7128   16.4183 H   0  0  0  0  0  0  0  0  0  0  0  0
   19.7960   68.7370   15.7060 H   0  0  0  0  0  0  0  0  0  0  0  0
   17.0404   70.0266   16.7811 H   0  0  0  0  0  0  0  0  0  0  0  0
   17.5068   69.2588   18.3519 H   0  0  0  0  0  0  0  0  0  0  0  0
   17.6551   72.2156   17.6336 H   0  0  0  0  0  0  0  0  0  0  0  0
   16.5095   71.3796   18.7964 H   0  0  0  0  0  0  0  0  0  0  0  0
   18.3410   71.1778   21.6680 H   0  0  0  0  0  0  0  0  0  0  0  0
   17.1131   70.3737   20.6325 H   0  0  0  0  0  0  0  0  0  0  0  0
   18.8110   69.7874   20.6325 H   0  0  0  0  0  0  0  0  0  0  0  0
   18.3934   73.7523   19.0809 H   0  0  0  0  0  0  0  0  0  0  0  0
   16.2100   73.3507   19.8938 H   0  0  0  0  0  0  0  0  0  0  0  0
   16.8771   72.8342   21.5184 H   0  0  0  0  0  0  0  0  0  0  0  0
   16.9203   75.6333   20.3216 H   0  0  0  0  0  0  0  0  0  0  0  0
   15.9508   75.0336   21.7344 H   0  0  0  0  0  0  0  0  0  0  0  0
   18.0254   75.1024   24.3008 H   0  0  0  0  0  0  0  0  0  0  0  0
   16.9767   73.9216   23.4449 H   0  0  0  0  0  0  0  0  0  0  0  0
   18.7597   73.7042   23.4449 H   0  0  0  0  0  0  0  0  0  0  0  0
   18.3824   81.3285   23.3693 H   0  0  0  0  0  0  0  0  0  0  0  0
   17.6831   82.2039   25.7817 H   0  0  0  0  0  0  0  0  0  0  0  0
   19.0918   82.9406   24.9454 H   0  0  0  0  0  0  0  0  0  0  0  0
   17.5057   83.7837   24.9454 H   0  0  0  0  0  0  0  0  0  0  0  0
   17.5311   84.0987   22.8624 H   0  0  0  0  0  0  0  0  0  0  0  0
   18.4766   82.9591   21.8456 H   0  0  0  0  0  0  0  0  0  0  0  0
   16.6819   82.8856   21.8456 H   0  0  0  0  0  0  0  0  0  0  0  0
  1  2  1  0
  2  3  1  0
  3  4  1  0
  4  5  2  0
  5  6  1  0
  6  7  1  0
  6  8  1  0
  8  9  1  0
  9 10  1  0
 10 11  1  0
 11 12  1  0
 12 13  1  0
 13 14  1  0
 14 15  2  0
 15 16  1  0
 16 17  1  0
 17 18  1  0
 17 19  1  0
 19 20  1  0
 20 21  1  0
 21 22  1  1
 21 23  1  0
 23 24  1  0
 24 25  1  0
 25 26  1  0
 26 27  1  1
  3 28  1  0
 28 29  1  0
 28 30  1  0
 26  8  1  0
 26 11  1  0
 23 12  1  0
 21 15  1  0
  1 31  1  0
  1 32  1  0
  1 33  1  0
  2 34  1  0
  2 35  1  0
  3 36  1  6
  4 37  1  0
  5 38  1  0
  6 39  1  1
  7 40  1  0
  7 41  1  0
  7 42  1  0
  8 43  1  6
  9 44  1  0
  9 45  1  0
 10 46  1  0
 10 47  1  0
 11 48  1  6
 12 49  1  1
 13 50  1  0
 13 51  1  0
 14 52  1  0
 16 53  1  0
 16 54  1  0
 17 55  1  6
 18 56  1  0
 19 57  1  0
 19 58  1  0
 20 59  1  0
 20 60  1  0
 22 61  1  0
 22 62  1  0
 22 63  1  0
 23 64  1  6
 24 65  1  0
 24 66  1  0
 25 67  1  0
 25 68  1  0
 27 69  1  0
 27 70  1  0
 27 71  1  0
 28 72  1  0
 29 73  1  0
 29 74  1  0
 29 75  1  0
 30 76  1  0
 30 77  1  0
 30 78  1  0
M  END
>  <meeko>  (12) 
{"is_sidechain": [false], "free_energy": 1.987, "intermolecular_energy": 1.826, "internal_energy": -0.045}

$$$$
MOL000449_docked
     RDKit          3D

 78 81  0  0  0  0  0  0  0  0999 V2000
   19.0320   67.1070   15.9650 C   0  0  0  0  0  0  0  0  0  0  0  0
   18.2620   68.1220   15.1260 C   0  0  0  0  0  0  0  0  0  0  0  0
   17.6870   69.2890   15.9590 C   0  0  2  0  0  0  0  0  0  0  0  0
   18.6510   69.6800   17.0610 C   0  0  0  0  0  0  0  0  0  0  0  0
   19.9880   69.6240   16.9390 C   0  0  0  0  0  0  0  0  0  0  0  0
   20.9540   69.9990   18.0460 C   0  0  1  0  0  0  0  0  0  0  0  0
   21.8070   71.1660   17.5450 C   0  0  0  0  0  0  0  0  0  0  0  0
   20.1800   70.3190   19.3510 C   0  0  1  0  0  0  0  0  0  0  0  0
   20.7960   69.5940   20.5850 C   0  0  0  0  0  0  0  0  0  0  0  0
   20.5420   70.4870   21.8070 C   0  0  0  0  0  0  0  0  0  0  0  0
   19.6020   71.5630   21.2850 C   0  0  1  0  0  0  0  0  0  0  0  0
   19.4510   72.8480   22.1060 C   0  0  2  0  0  0  0  0  0  0  0  0
   18.9790   72.5290   23.5340 C   0  0  0  0  0  0  0  0  0  0  0  0
   18.4570   73.7200   24.2720 C   0  0  0  0  0  0  0  0  0  0  0  0
   18.1490   74.9010   23.7040 C   0  0  0  0  0  0  0  0  0  0  0  0
   17.6500   76.0460   24.5600 C   0  0  0  0  0  0  0  0  0  0  0  0
   16.3720   76.6740   23.9980 C   0  0  1  0  0  0  0  0  0  0  0  0
   16.0250   77.8330   24.7540 O   0  0  0  0  0  0  0  0  0  0  0  0
   16.5420   77.0600   22.5310 C   0  0  0  0  0  0  0  0  0  0  0  0
   16.9780   75.8610   21.6900 C   0  0  0  0  0  0  0  0  0  0  0  0
   18.2740   75.1570   22.1950 C   0  0  1  0  0  0  0  0  0  0  0  0
   19.4870   76.0890   21.9670 C   0  0  0  0  0  0  0  0  0  0  0  0
   18.4370   73.7950   21.4080 C   0  0  1  0  0  0  0  0  0  0  0  0
   18.7360   73.9700   19.8970 C   0  0  0  0  0  0  0  0  0  0  0  0
   18.9840   72.6470   19.1520 C   0  0  0  0  0  0  0  0  0  0  0  0
   20.0750   71.7990   19.8300 C   0  0  2  0  0  0  0  0  0  0  0  0
   21.4450   72.5120   19.7310 C   0  0  0  0  0  0  0  0  0  0  0  0
   16.2610   68.9590   16.4930 C   0  0  0  0  0  0  0  0  0  0  0  0
   15.2900   70.1250   16.2680 C   0  0  0  0  0  0  0  0  0  0  0  0
   16.2180   68.5320   17.9640 C   0  0  0  0  0  0  0  0  0  0  0  0
   18.8723   67.3175   17.0328 H   0  0  0  0  0  0  0  0  0  0  0  0
   18.6739   66.0930   15.7336 H   0  0  0  0  0  0  0  0  0  0  0  0
   20.1050   67.1786   15.7336 H   0  0  0  0  0  0  0  0  0  0  0  0
   18.9421   68.5361   14.3671 H   0  0  0  0  0  0  0  0  0  0  0  0
   17.4105   67.5930   14.6732 H   0  0  0  0  0  0  0  0  0  0  0  0
   17.5720   70.1649   15.3036 H   0  0  0  0  0  0  0  0  0  0  0  0
   18.2320   70.0299   18.0160 H   0  0  0  0  0  0  0  0  0  0  0  0
   20.4064   69.2862   15.9794 H   0  0  0  0  0  0  0  0  0  0  0  0
   21.6240   69.1632   18.2960 H   0  0  0  0  0  0  0  0  0  0  0  0
   22.2119   71.7199   18.4048 H   0  0  0  0  0  0  0  0  0  0  0  0
   22.6363   70.7786   16.9350 H   0  0  0  0  0  0  0  0  0  0  0  0
   21.1861   71.8386   16.9350 H   0  0  0  0  0  0  0  0  0  0  0  0
   19.1798   69.9833   19.0395 H   0  0  0  0  0  0  0  0  0  0  0  0
   20.3146   68.6151   20.7265 H   0  0  0  0  0  0  0  0  0  0  0  0
   21.8733   69.4243   20.4416 H   0  0  0  0  0  0  0  0  0  0  0  0
   20.0692   69.9145   22.6186 H   0  0  0  0  0  0  0  0  0  0  0  0
   21.4691   70.9021   22.2290 H   0  0  0  0  0  0  0  0  0  0  0  0
   18.5643   71.2062   21.3617 H   0  0  0  0  0  0  0  0  0  0  0  0
   20.4306   73.3442   22.1701 H   0  0  0  0  0  0  0  0  0  0  0  0
   18.1779   71.7774   23.4757 H   0  0  0  0  0  0  0  0  0  0  0  0
   19.8555   72.1640   24.0895 H   0  0  0  0  0  0  0  0  0  0  0  0
   18.3142   73.6242   25.3585 H   0  0  0  0  0  0  0  0  0  0  0  0
   17.4434   75.6678   25.5721 H   0  0  0  0  0  0  0  0  0  0  0  0
   18.4296   76.8219   24.5739 H   0  0  0  0  0  0  0  0  0  0  0  0
   15.5690   75.9258   24.0711 H   0  0  0  0  0  0  0  0  0  0  0  0
   16.8240   78.2100   25.1530 H   0  0  0  0  0  0  0  0  0  0  0  0
   15.5834   77.4383   22.1463 H   0  0  0  0  0  0  0  0  0  0  0  0
   17.3205   77.8342   22.4629 H   0  0  0  0  0  0  0  0  0  0  0  0
   16.1621   75.1233   21.6937 H   0  0  0  0  0  0  0  0  0  0  0  0
   17.2022   76.2476   20.6849 H   0  0  0  0  0  0  0  0  0  0  0  0
   19.8958   76.4031   22.9387 H   0  0  0  0  0  0  0  0  0  0  0  0
   20.2612   75.5512   21.4001 H   0  0  0  0  0  0  0  0  0  0  0  0
   19.1667   76.9756   21.4001 H   0  0  0  0  0  0  0  0  0  0  0  0
   17.4500   73.3107   21.4447 H   0  0  0  0  0  0  0  0  0  0  0  0
   17.8770   74.4742   19.4303 H   0  0  0  0  0  0  0  0  0  0  0  0
   19.6632   74.5570   19.8215 H   0  0  0  0  0  0  0  0  0  0  0  0
   18.0476   72.0702   19.1313 H   0  0  0  0  0  0  0  0  0  0  0  0
   19.3251   72.8889   18.1346 H   0  0  0  0  0  0  0  0  0  0  0  0
   21.8284   72.7116   20.7425 H   0  0  0  0  0  0  0  0  0  0  0  0
   22.1548   71.8689   19.1901 H   0  0  0  0  0  0  0  0  0  0  0  0
   21.3255   73.4623   19.1901 H   0  0  0  0  0  0  0  0  0  0  0  0
   15.9417   68.0881   15.9018 H   0  0  0  0  0  0  0  0  0  0  0  0
   14.9606   70.5206   17.2401 H   0  0  0  0  0  0  0  0  0  0  0  0
   15.7967   70.9200   15.7013 H   0  0  0  0  0  0  0  0  0  0  0  0
   14.4164   69.7705   15.7013 H   0  0  0  0  0  0  0  0  0  0  0  0
   16.3075   69.4204   18.6064 H   0  0  0  0  0  0  0  0  0  0  0  0
   15.2642   68.0245   18.1708 H   0  0  0  0  0  0  0  0  0  0  0  0
   17.0515   67.8445   18.1708 H   0  0  0  0  0  0  0  0  0  0  0  0
  1  2  1  0
  2  3  1  0
  3  4  1  0
  4  5  2  0
  5  6  1  0
  6  7  1  0
  6  8  1  0
  8  9  1  0
  9 10  1  0
 10 11  1  0
 11 12  1  0
 12 13  1  0
 13 14  1  0
 14 15  2  0
 15 16  1  0
 16 17  1  0
 17 18  1  0
 17 19  1  0
 19 20  1  0
 20 21  1  0
 21 22  1  1
 21 23  1  0
 23 24  1  0
 24 25  1  0
 25 26  1  0
 26 27  1  1
  3 28  1  0
 28 29  1  0
 28 30  1  0
 26  8  1  0
 26 11  1  0
 23 12  1  0
 21 15  1  0
  1 31  1  0
  1 32  1  0
  1 33  1  0
  2 34  1  0
  2 35  1  0
  3 36  1  6
  4 37  1  0
  5 38  1  0
  6 39  1  1
  7 40  1  0
  7 41  1  0
  7 42  1  0
  8 43  1  6
  9 44  1  0
  9 45  1  0
 10 46  1  0
 10 47  1  0
 11 48  1  6
 12 49  1  1
 13 50  1  0
 13 51  1  0
 14 52  1  0
 16 53  1  0
 16 54  1  0
 17 55  1  6
 18 56  1  0
 19 57  1  0
 19 58  1  0
 20 59  1  0
 20 60  1  0
 22 61  1  0
 22 62  1  0
 22 63  1  0
 23 64  1  6
 24 65  1  0
 24 66  1  0
 25 67  1  0
 25 68  1  0
 27 69  1  0
 27 70  1  0
 27 71  1  0
 28 72  1  0
 29 73  1  0
 29 74  1  0
 29 75  1  0
 30 76  1  0
 30 77  1  0
 30 78  1  0
M  END
>  <meeko>  (13) 
{"is_sidechain": [false], "free_energy": 2.827, "intermolecular_energy": 2.321, "internal_energy": 0.569}

$$$$
MOL000449_docked
     RDKit          3D

 78 81  0  0  0  0  0  0  0  0999 V2000
   22.0970   75.3710   21.0070 C   0  0  0  0  0  0  0  0  0  0  0  0
   21.0270   76.3870   20.6220 C   0  0  0  0  0  0  0  0  0  0  0  0
   19.9870   76.6290   21.7380 C   0  0  2  0  0  0  0  0  0  0  0  0
   20.0420   75.5150   22.7650 C   0  0  0  0  0  0  0  0  0  0  0  0
   18.9820   75.1050   23.4800 C   0  0  0  0  0  0  0  0  0  0  0  0
   19.0380   74.0030   24.5200 C   0  0  1  0  0  0  0  0  0  0  0  0
   17.8190   74.1580   25.4320 C   0  0  0  0  0  0  0  0  0  0  0  0
   19.1190   72.6160   23.8310 C   0  0  1  0  0  0  0  0  0  0  0  0
   18.1480   71.5860   24.4820 C   0  0  0  0  0  0  0  0  0  0  0  0
   17.7150   70.6120   23.3780 C   0  0  0  0  0  0  0  0  0  0  0  0
   18.6170   70.9660   22.2050 C   0  0  1  0  0  0  0  0  0  0  0  0
   18.2070   70.4810   20.8100 C   0  0  2  0  0  0  0  0  0  0  0  0
   18.0600   68.9520   20.7860 C   0  0  0  0  0  0  0  0  0  0  0  0
   18.0310   68.3740   19.4060 C   0  0  0  0  0  0  0  0  0  0  0  0
   18.3730   69.0400   18.2880 C   0  0  0  0  0  0  0  0  0  0  0  0
   18.2800   68.3560   16.9400 C   0  0  0  0  0  0  0  0  0  0  0  0
   19.5660   68.5060   16.1250 C   0  0  1  0  0  0  0  0  0  0  0  0
   19.3780   67.9740   14.8150 O   0  0  0  0  0  0  0  0  0  0  0  0
   19.9890   69.9690   16.0200 C   0  0  0  0  0  0  0  0  0  0  0  0
   20.1400   70.6030   17.4010 C   0  0  0  0  0  0  0  0  0  0  0  0
   18.8740   70.4910   18.3040 C   0  0  1  0  0  0  0  0  0  0  0  0
   17.7530   71.3890   17.7280 C   0  0  0  0  0  0  0  0  0  0  0  0
   19.2700   70.9320   19.7700 C   0  0  1  0  0  0  0  0  0  0  0  0
   19.6270   72.4340   19.9040 C   0  0  0  0  0  0  0  0  0  0  0  0
   19.9230   72.8790   21.3470 C   0  0  0  0  0  0  0  0  0  0  0  0
   18.7870   72.5010   22.3120 C   0  0  2  0  0  0  0  0  0  0  0  0
   17.5030   73.2920   21.9640 C   0  0  0  0  0  0  0  0  0  0  0  0
   18.5600   76.8410   21.1510 C   0  0  0  0  0  0  0  0  0  0  0  0
   17.5180   77.0420   22.2580 C   0  0  0  0  0  0  0  0  0  0  0  0
   18.0940   75.7300   20.2030 C   0  0  0  0  0  0  0  0  0  0  0  0
   22.1644   75.3070   22.1031 H   0  0  0  0  0  0  0  0  0  0  0  0
   21.8308   74.3853   20.5978 H   0  0  0  0  0  0  0  0  0  0  0  0
   23.0677   75.6879   20.5978 H   0  0  0  0  0  0  0  0  0  0  0  0
   21.5198   77.3428   20.3904 H   0  0  0  0  0  0  0  0  0  0  0  0
   20.4866   75.9795   19.7549 H   0  0  0  0  0  0  0  0  0  0  0  0
   20.2425   77.5630   22.2599 H   0  0  0  0  0  0  0  0  0  0  0  0
   21.0063   75.0135   22.9342 H   0  0  0  0  0  0  0  0  0  0  0  0
   18.0152   75.5980   23.3005 H   0  0  0  0  0  0  0  0  0  0  0  0
   19.9438   74.0799   25.1393 H   0  0  0  0  0  0  0  0  0  0  0  0
   18.1401   74.1172   26.4833 H   0  0  0  0  0  0  0  0  0  0  0  0
   17.3336   75.1251   25.2341 H   0  0  0  0  0  0  0  0  0  0  0  0
   17.1071   73.3431   25.2341 H   0  0  0  0  0  0  0  0  0  0  0  0
   20.1934   72.4231   23.9667 H   0  0  0  0  0  0  0  0  0  0  0  0
   18.6619   71.0397   25.2866 H   0  0  0  0  0  0  0  0  0  0  0  0
   17.2758   72.0935   24.9199 H   0  0  0  0  0  0  0  0  0  0  0  0
   17.8719   69.5695   23.6919 H   0  0  0  0  0  0  0  0  0  0  0  0
   16.6461   70.6964   23.1324 H   0  0  0  0  0  0  0  0  0  0  0  0
   19.5615   70.4092   22.2931 H   0  0  0  0  0  0  0  0  0  0  0  0
   17.2330   70.9233   20.5536 H   0  0  0  0  0  0  0  0  0  0  0  0
   18.9096   68.5125   21.3292 H   0  0  0  0  0  0  0  0  0  0  0  0
   17.0943   68.7136   21.2557 H   0  0  0  0  0  0  0  0  0  0  0  0
   17.7065   67.3286   19.2977 H   0  0  0  0  0  0  0  0  0  0  0  0
   18.0844   67.2853   17.0990 H   0  0  0  0  0  0  0  0  0  0  0  0
   17.4652   68.8327   16.3753 H   0  0  0  0  0  0  0  0  0  0  0  0
   20.3602   67.9494   16.6441 H   0  0  0  0  0  0  0  0  0  0  0  0
   20.2260   67.9620   14.3450 H   0  0  0  0  0  0  0  0  0  0  0  0
   20.9523   70.0266   15.4920 H   0  0  0  0  0  0  0  0  0  0  0  0
   19.2102   70.5171   15.4694 H   0  0  0  0  0  0  0  0  0  0  0  0
   20.9755   70.1077   17.9173 H   0  0  0  0  0  0  0  0  0  0  0  0
   20.3133   71.6766   17.2359 H   0  0  0  0  0  0  0  0  0  0  0  0
   17.1861   71.8431   18.5541 H   0  0  0  0  0  0  0  0  0  0  0  0
   18.1996   72.1821   17.1102 H   0  0  0  0  0  0  0  0  0  0  0  0
   17.0765   70.7801   17.1102 H   0  0  0  0  0  0  0  0  0  0  0  0
   20.2056   70.4003   19.9978 H   0  0  0  0  0  0  0  0  0  0  0  0
   20.5177   72.6342   19.2904 H   0  0  0  0  0  0  0  0  0  0  0  0
   18.7466   73.0022   19.5692 H   0  0  0  0  0  0  0  0  0  0  0  0
   20.8512   72.3947   21.6844 H   0  0  0  0  0  0  0  0  0  0  0  0
   20.0210   73.9746   21.3509 H   0  0  0  0  0  0  0  0  0  0  0  0
   17.0003   73.6017   22.8921 H   0  0  0  0  0  0  0  0  0  0  0  0
   17.7692   74.1829   21.3763 H   0  0  0  0  0  0  0  0  0  0  0  0
   16.8270   72.6536   21.3763 H   0  0  0  0  0  0  0  0  0  0  0  0
   18.6444   77.7571   20.5480 H   0  0  0  0  0  0  0  0  0  0  0  0
   18.0040   76.9483   23.2404 H   0  0  0  0  0  0  0  0  0  0  0  0
   17.0714   78.0428   22.1638 H   0  0  0  0  0  0  0  0  0  0  0  0
   16.7312   76.2791   22.1638 H   0  0  0  0  0  0  0  0  0  0  0  0
   17.7345   74.8729   20.7913 H   0  0  0  0  0  0  0  0  0  0  0  0
   17.2783   76.1074   19.5687 H   0  0  0  0  0  0  0  0  0  0  0  0
   18.9348   75.4126   19.5687 H   0  0  0  0  0  0  0  0  0  0  0  0
  1  2  1  0
  2  3  1  0
  3  4  1  0
  4  5  2  0
  5  6  1  0
  6  7  1  0
  6  8  1  0
  8  9  1  0
  9 10  1  0
 10 11  1  0
 11 12  1  0
 12 13  1  0
 13 14  1  0
 14 15  2  0
 15 16  1  0
 16 17  1  0
 17 18  1  0
 17 19  1  0
 19 20  1  0
 20 21  1  0
 21 22  1  6
 21 23  1  0
 23 24  1  0
 24 25  1  0
 25 26  1  0
 26 27  1  6
  3 28  1  0
 28 29  1  0
 28 30  1  0
 26  8  1  0
 26 11  1  0
 23 12  1  0
 21 15  1  0
  1 31  1  0
  1 32  1  0
  1 33  1  0
  2 34  1  0
  2 35  1  0
  3 36  1  1
  4 37  1  0
  5 38  1  0
  6 39  1  1
  7 40  1  0
  7 41  1  0
  7 42  1  0
  8 43  1  6
  9 44  1  0
  9 45  1  0
 10 46  1  0
 10 47  1  0
 11 48  1  1
 12 49  1  6
 13 50  1  0
 13 51  1  0
 14 52  1  0
 16 53  1  0
 16 54  1  0
 17 55  1  1
 18 56  1  0
 19 57  1  0
 19 58  1  0
 20 59  1  0
 20 60  1  0
 22 61  1  0
 22 62  1  0
 22 63  1  0
 23 64  1  1
 24 65  1  0
 24 66  1  0
 25 67  1  0
 25 68  1  0
 27 69  1  0
 27 70  1  0
 27 71  1  0
 28 72  1  0
 29 73  1  0
 29 74  1  0
 29 75  1  0
 30 76  1  0
 30 77  1  0
 30 78  1  0
M  END
>  <meeko>  (14) 
{"is_sidechain": [false], "free_energy": 3.46, "intermolecular_energy": 2.49, "internal_energy": 1.237}

$$$$
MOL000449_docked
     RDKit          3D

 78 81  0  0  0  0  0  0  0  0999 V2000
   20.3480   75.6450   21.4270 C   0  0  0  0  0  0  0  0  0  0  0  0
   20.3700   76.0920   22.8850 C   0  0  0  0  0  0  0  0  0  0  0  0
   18.9830   76.0260   23.5620 C   0  0  2  0  0  0  0  0  0  0  0  0
   18.6090   74.5890   23.8640 C   0  0  0  0  0  0  0  0  0  0  0  0
   19.4190   73.5420   23.6390 C   0  0  0  0  0  0  0  0  0  0  0  0
   19.0390   72.1020   23.9250 C   0  0  1  0  0  0  0  0  0  0  0  0
   18.3770   72.0590   25.3040 C   0  0  0  0  0  0  0  0  0  0  0  0
   18.1360   71.5480   22.7930 C   0  0  1  0  0  0  0  0  0  0  0  0
   16.9710   72.5240   22.4480 C   0  0  0  0  0  0  0  0  0  0  0  0
   16.6530   72.3390   20.9580 C   0  0  0  0  0  0  0  0  0  0  0  0
   17.4690   71.1190   20.5590 C   0  0  1  0  0  0  0  0  0  0  0  0
   17.7170   70.8760   19.0660 C   0  0  2  0  0  0  0  0  0  0  0  0
   16.3880   70.7640   18.3040 C   0  0  0  0  0  0  0  0  0  0  0  0
   16.5270   70.1670   16.9390 C   0  0  0  0  0  0  0  0  0  0  0  0
   17.6220   69.5250   16.4910 C   0  0  0  0  0  0  0  0  0  0  0  0
   17.6560   68.9820   15.0780 C   0  0  0  0  0  0  0  0  0  0  0  0
   18.1060   67.5210   15.0300 C   0  0  1  0  0  0  0  0  0  0  0  0
   18.2620   67.1020   13.6750 O   0  0  0  0  0  0  0  0  0  0  0  0
   19.4240   67.3220   15.7740 C   0  0  0  0  0  0  0  0  0  0  0  0
   19.3270   67.8170   17.2160 C   0  0  0  0  0  0  0  0  0  0  0  0
   18.8690   69.3010   17.3580 C   0  0  1  0  0  0  0  0  0  0  0  0
   19.9870   70.2350   16.8380 C   0  0  0  0  0  0  0  0  0  0  0  0
   18.5500   69.5770   18.8820 C   0  0  1  0  0  0  0  0  0  0  0  0
   19.7930   69.5360   19.8070 C   0  0  0  0  0  0  0  0  0  0  0  0
   19.4930   69.8940   21.2720 C   0  0  0  0  0  0  0  0  0  0  0  0
   18.7640   71.2430   21.3980 C   0  0  2  0  0  0  0  0  0  0  0  0
   19.6900   72.3970   20.9440 C   0  0  0  0  0  0  0  0  0  0  0  0
   17.9030   76.7690   22.7210 C   0  0  0  0  0  0  0  0  0  0  0  0
   16.7760   77.3150   23.6060 C   0  0  0  0  0  0  0  0  0  0  0  0
   17.3040   75.9370   21.5820 C   0  0  0  0  0  0  0  0  0  0  0  0
   20.2940   74.5473   21.3808 H   0  0  0  0  0  0  0  0  0  0  0  0
   19.4700   76.0768   20.9243 H   0  0  0  0  0  0  0  0  0  0  0  0
   21.2641   75.9885   20.9243 H   0  0  0  0  0  0  0  0  0  0  0  0
   21.0614   75.4409   23.4400 H   0  0  0  0  0  0  0  0  0  0  0  0
   20.6917   77.1438   22.8999 H   0  0  0  0  0  0  0  0  0  0  0  0
   19.0354   76.5557   24.5247 H   0  0  0  0  0  0  0  0  0  0  0  0
   17.6154   74.3919   24.2928 H   0  0  0  0  0  0  0  0  0  0  0  0
   20.4175   73.7406   23.2225 H   0  0  0  0  0  0  0  0  0  0  0  0
   19.9239   71.4490   23.9453 H   0  0  0  0  0  0  0  0  0  0  0  0
   19.1510   72.1093   26.0840 H   0  0  0  0  0  0  0  0  0  0  0  0
   17.6939   72.9147   25.4096 H   0  0  0  0  0  0  0  0  0  0  0  0
   17.8103   71.1222   25.4096 H   0  0  0  0  0  0  0  0  0  0  0  0
   17.8486   70.5942   23.2596 H   0  0  0  0  0  0  0  0  0  0  0  0
   16.0857   72.2843   23.0553 H   0  0  0  0  0  0  0  0  0  0  0  0
   17.2564   73.5648   22.6610 H   0  0  0  0  0  0  0  0  0  0  0  0
   15.5786   72.1579   20.8066 H   0  0  0  0  0  0  0  0  0  0  0  0
   16.8978   73.2280   20.3582 H   0  0  0  0  0  0  0  0  0  0  0  0
   16.8884   70.2094   20.7723 H   0  0  0  0  0  0  0  0  0  0  0  0
   18.2761   71.7303   18.6566 H   0  0  0  0  0  0  0  0  0  0  0  0
   15.7031   70.1341   18.8907 H   0  0  0  0  0  0  0  0  0  0  0  0
   16.0062   71.7869   18.1706 H   0  0  0  0  0  0  0  0  0  0  0  0
   15.6728   70.2594   16.2521 H   0  0  0  0  0  0  0  0  0  0  0  0
   16.6472   69.0561   14.6459 H   0  0  0  0  0  0  0  0  0  0  0  0
   18.3822   69.5775   14.5053 H   0  0  0  0  0  0  0  0  0  0  0  0
   17.3313   66.9145   15.5219 H   0  0  0  0  0  0  0  0  0  0  0  0
   19.2060   67.0120   13.4710 H   0  0  0  0  0  0  0  0  0  0  0  0
   19.6747   66.2510   15.7788 H   0  0  0  0  0  0  0  0  0  0  0  0
   20.2044   67.9018   15.2594 H   0  0  0  0  0  0  0  0  0  0  0  0
   18.6053   67.1815   17.7501 H   0  0  0  0  0  0  0  0  0  0  0  0
   20.3418   67.7599   17.6366 H   0  0  0  0  0  0  0  0  0  0  0  0
   20.5196   70.6799   17.6915 H   0  0  0  0  0  0  0  0  0  0  0  0
   20.6941   69.6554   16.2264 H   0  0  0  0  0  0  0  0  0  0  0  0
   19.5424   71.0339   16.2264 H   0  0  0  0  0  0  0  0  0  0  0  0
   17.9278   68.7323   19.2127 H   0  0  0  0  0  0  0  0  0  0  0  0
   20.2126   68.5196   19.7780 H   0  0  0  0  0  0  0  0  0  0  0  0
   20.4954   70.2944   19.4309 H   0  0  0  0  0  0  0  0  0  0  0  0
   18.8605   69.1065   21.7077 H   0  0  0  0  0  0  0  0  0  0  0  0
   20.4517   69.9748   21.8052 H   0  0  0  0  0  0  0  0  0  0  0  0
   20.0998   72.9077   21.8279 H   0  0  0  0  0  0  0  0  0  0  0  0
   20.5147   71.9897   20.3407 H   0  0  0  0  0  0  0  0  0  0  0  0
   19.1137   73.1139   20.3407 H   0  0  0  0  0  0  0  0  0  0  0  0
   18.4459   77.6026   22.2516 H   0  0  0  0  0  0  0  0  0  0  0  0
   17.0452   77.1846   24.6646 H   0  0  0  0  0  0  0  0  0  0  0  0
   16.6288   78.3843   23.3941 H   0  0  0  0  0  0  0  0  0  0  0  0
   15.8456   76.7678   23.3941 H   0  0  0  0  0  0  0  0  0  0  0  0
   16.7103   75.1124   22.0033 H   0  0  0  0  0  0  0  0  0  0  0  0
   16.6570   76.5755   20.9626 H   0  0  0  0  0  0  0  0  0  0  0  0
   18.1148   75.5259   20.9626 H   0  0  0  0  0  0  0  0  0  0  0  0
  1  2  1  0
  2  3  1  0
  3  4  1  0
  4  5  2  0
  5  6  1  0
  6  7  1  0
  6  8  1  0
  8  9  1  0
  9 10  1  0
 10 11  1  0
 11 12  1  0
 12 13  1  0
 13 14  1  0
 14 15  2  0
 15 16  1  0
 16 17  1  0
 17 18  1  0
 17 19  1  0
 19 20  1  0
 20 21  1  0
 21 22  1  6
 21 23  1  0
 23 24  1  0
 24 25  1  0
 25 26  1  0
 26 27  1  6
  3 28  1  0
 28 29  1  0
 28 30  1  0
 26  8  1  0
 26 11  1  0
 23 12  1  0
 21 15  1  0
  1 31  1  0
  1 32  1  0
  1 33  1  0
  2 34  1  0
  2 35  1  0
  3 36  1  1
  4 37  1  0
  5 38  1  0
  6 39  1  1
  7 40  1  0
  7 41  1  0
  7 42  1  0
  8 43  1  1
  9 44  1  0
  9 45  1  0
 10 46  1  0
 10 47  1  0
 11 48  1  1
 12 49  1  6
 13 50  1  0
 13 51  1  0
 14 52  1  0
 16 53  1  0
 16 54  1  0
 17 55  1  1
 18 56  1  0
 19 57  1  0
 19 58  1  0
 20 59  1  0
 20 60  1  0
 22 61  1  0
 22 62  1  0
 22 63  1  0
 23 64  1  1
 24 65  1  0
 24 66  1  0
 25 67  1  0
 25 68  1  0
 27 69  1  0
 27 70  1  0
 27 71  1  0
 28 72  1  0
 29 73  1  0
 29 74  1  0
 29 75  1  0
 30 76  1  0
 30 77  1  0
 30 78  1  0
M  END
>  <meeko>  (15) 
{"is_sidechain": [false], "free_energy": 3.85, "intermolecular_energy": 3.907, "internal_energy": 0.334}

$$$$
MOL000449_docked
     RDKit          3D

 78 81  0  0  0  0  0  0  0  0999 V2000
   15.9840   78.2660   24.3670 C   0  0  0  0  0  0  0  0  0  0  0  0
   16.9840   78.0410   23.2370 C   0  0  0  0  0  0  0  0  0  0  0  0
   16.9030   76.6250   22.6260 C   0  0  2  0  0  0  0  0  0  0  0  0
   17.4440   75.5950   23.5980 C   0  0  0  0  0  0  0  0  0  0  0  0
   18.6170   74.9610   23.4390 C   0  0  0  0  0  0  0  0  0  0  0  0
   19.1520   73.9180   24.4020 C   0  0  1  0  0  0  0  0  0  0  0  0
   18.2550   73.9250   25.6420 C   0  0  0  0  0  0  0  0  0  0  0  0
   19.2310   72.5340   23.7080 C   0  0  1  0  0  0  0  0  0  0  0  0
   18.2770   71.4960   24.3710 C   0  0  0  0  0  0  0  0  0  0  0  0
   17.8330   70.5230   23.2700 C   0  0  0  0  0  0  0  0  0  0  0  0
   18.7150   70.8850   22.0850 C   0  0  1  0  0  0  0  0  0  0  0  0
   18.2870   70.4020   20.6950 C   0  0  2  0  0  0  0  0  0  0  0  0
   18.1500   68.8720   20.6680 C   0  0  0  0  0  0  0  0  0  0  0  0
   18.1040   68.2970   19.2880 C   0  0  0  0  0  0  0  0  0  0  0  0
   18.4250   68.9690   18.1660 C   0  0  0  0  0  0  0  0  0  0  0  0
   18.3160   68.2880   16.8180 C   0  0  0  0  0  0  0  0  0  0  0  0
   19.5880   68.4490   15.9840 C   0  0  1  0  0  0  0  0  0  0  0  0
   19.3830   67.9200   14.6750 O   0  0  0  0  0  0  0  0  0  0  0  0
   19.9990   69.9150   15.8760 C   0  0  0  0  0  0  0  0  0  0  0  0
   20.1680   70.5460   17.2580 C   0  0  0  0  0  0  0  0  0  0  0  0
   18.9160   70.4230   18.1790 C   0  0  1  0  0  0  0  0  0  0  0  0
   17.7810   71.3160   17.6230 C   0  0  0  0  0  0  0  0  0  0  0  0
   19.3320   70.8630   19.6400 C   0  0  1  0  0  0  0  0  0  0  0  0
   19.6810   72.3670   19.7730 C   0  0  0  0  0  0  0  0  0  0  0  0
   19.9960   72.8100   21.2130 C   0  0  0  0  0  0  0  0  0  0  0  0
   18.8760   72.4210   22.1940 C   0  0  2  0  0  0  0  0  0  0  0  0
   17.5830   73.2050   21.8680 C   0  0  0  0  0  0  0  0  0  0  0  0
   17.5980   76.5650   21.2330 C   0  0  0  0  0  0  0  0  0  0  0  0
   16.9660   75.4960   20.3320 C   0  0  0  0  0  0  0  0  0  0  0  0
   19.1150   76.3570   21.2910 C   0  0  0  0  0  0  0  0  0  0  0  0
   16.4931   78.1515   25.3354 H   0  0  0  0  0  0  0  0  0  0  0  0
   15.5661   79.2806   24.2902 H   0  0  0  0  0  0  0  0  0  0  0  0
   15.1718   77.5281   24.2902 H   0  0  0  0  0  0  0  0  0  0  0  0
   16.7857   78.7762   22.4431 H   0  0  0  0  0  0  0  0  0  0  0  0
   17.9912   78.1556   23.6641 H   0  0  0  0  0  0  0  0  0  0  0  0
   15.8455   76.3790   22.4497 H   0  0  0  0  0  0  0  0  0  0  0  0
   16.8405   75.3529   24.4852 H   0  0  0  0  0  0  0  0  0  0  0  0
   19.2261   75.2128   22.5583 H   0  0  0  0  0  0  0  0  0  0  0  0
   20.1799   74.1503   24.7172 H   0  0  0  0  0  0  0  0  0  0  0  0
   18.8803   73.9201   26.5469 H   0  0  0  0  0  0  0  0  0  0  0  0
   17.6270   74.8281   25.6352 H   0  0  0  0  0  0  0  0  0  0  0  0
   17.6130   73.0318   25.6352 H   0  0  0  0  0  0  0  0  0  0  0  0
   20.3086   72.3477   23.8263 H   0  0  0  0  0  0  0  0  0  0  0  0
   18.8069   70.9502   25.1656 H   0  0  0  0  0  0  0  0  0  0  0  0
   17.4087   71.9963   24.8247 H   0  0  0  0  0  0  0  0  0  0  0  0
   18.0001   69.4804   23.5783 H   0  0  0  0  0  0  0  0  0  0  0  0
   16.7602   70.6028   23.0405 H   0  0  0  0  0  0  0  0  0  0  0  0
   19.6640   70.3335   22.1572 H   0  0  0  0  0  0  0  0  0  0  0  0
   17.3064   70.8390   20.4551 H   0  0  0  0  0  0  0  0  0  0  0  0
   19.0106   68.4368   21.1971 H   0  0  0  0  0  0  0  0  0  0  0  0
   17.1927   68.6263   21.1508 H   0  0  0  0  0  0  0  0  0  0  0  0
   17.7850   67.2496   19.1819 H   0  0  0  0  0  0  0  0  0  0  0  0
   18.1302   67.2155   16.9771 H   0  0  0  0  0  0  0  0  0  0  0  0
   17.4894   68.7605   16.2672 H   0  0  0  0  0  0  0  0  0  0  0  0
   20.3936   67.8963   16.4895 H   0  0  0  0  0  0  0  0  0  0  0  0
   20.0850   68.2350   14.0850 H   0  0  0  0  0  0  0  0  0  0  0  0
   20.9531   69.9809   15.3326 H   0  0  0  0  0  0  0  0  0  0  0  0
   19.2081   70.4594   15.3393 H   0  0  0  0  0  0  0  0  0  0  0  0
   21.0141   70.0539   17.7599 H   0  0  0  0  0  0  0  0  0  0  0  0
   20.3333   71.6211   17.0944 H   0  0  0  0  0  0  0  0  0  0  0  0
   17.2192   71.7580   18.4591 H   0  0  0  0  0  0  0  0  0  0  0  0
   18.2139   72.1182   17.0073 H   0  0  0  0  0  0  0  0  0  0  0  0
   17.1031   70.7065   17.0073 H   0  0  0  0  0  0  0  0  0  0  0  0
   20.2748   70.3373   19.8518 H   0  0  0  0  0  0  0  0  0  0  0  0
   20.5609   72.5749   19.1465 H   0  0  0  0  0  0  0  0  0  0  0  0
   18.7918   72.9302   19.4533 H   0  0  0  0  0  0  0  0  0  0  0  0
   20.9324   72.3310   21.5351 H   0  0  0  0  0  0  0  0  0  0  0  0
   20.0872   73.9062   21.2189 H   0  0  0  0  0  0  0  0  0  0  0  0
   17.0896   73.5042   22.8045 H   0  0  0  0  0  0  0  0  0  0  0  0
   17.8356   74.1022   21.2838 H   0  0  0  0  0  0  0  0  0  0  0  0
   16.9043   72.5662   21.2838 H   0  0  0  0  0  0  0  0  0  0  0  0
   17.4322   77.5625   20.7999 H   0  0  0  0  0  0  0  0  0  0  0  0
   16.5050   74.7163   20.9561 H   0  0  0  0  0  0  0  0  0  0  0  0
   16.1968   75.9597   19.6970 H   0  0  0  0  0  0  0  0  0  0  0  0
   17.7431   75.0456   19.6970 H   0  0  0  0  0  0  0  0  0  0  0  0
   19.4391   76.3126   22.3412 H   0  0  0  0  0  0  0  0  0  0  0  0
   19.3754   75.4147   20.7867 H   0  0  0  0  0  0  0  0  0  0  0  0
   19.6195   77.1944   20.7867 H   0  0  0  0  0  0  0  0  0  0  0  0
  1  2  1  0
  2  3  1  0
  3  4  1  0
  4  5  2  0
  5  6  1  0
  6  7  1  0
  6  8  1  0
  8  9  1  0
  9 10  1  0
 10 11  1  0
 11 12  1  0
 12 13  1  0
 13 14  1  0
 14 15  2  0
 15 16  1  0
 16 17  1  0
 17 18  1  0
 17 19  1  0
 19 20  1  0
 20 21  1  0
 21 22  1  6
 21 23  1  0
 23 24  1  0
 24 25  1  0
 25 26  1  0
 26 27  1  1
  3 28  1  0
 28 29  1  0
 28 30  1  0
 26  8  1  0
 26 11  1  0
 23 12  1  0
 21 15  1  0
  1 31  1  0
  1 32  1  0
  1 33  1  0
  2 34  1  0
  2 35  1  0
  3 36  1  6
  4 37  1  0
  5 38  1  0
  6 39  1  1
  7 40  1  0
  7 41  1  0
  7 42  1  0
  8 43  1  6
  9 44  1  0
  9 45  1  0
 10 46  1  0
 10 47  1  0
 11 48  1  1
 12 49  1  6
 13 50  1  0
 13 51  1  0
 14 52  1  0
 16 53  1  0
 16 54  1  0
 17 55  1  1
 18 56  1  0
 19 57  1  0
 19 58  1  0
 20 59  1  0
 20 60  1  0
 22 61  1  0
 22 62  1  0
 22 63  1  0
 23 64  1  1
 24 65  1  0
 24 66  1  0
 25 67  1  0
 25 68  1  0
 27 69  1  0
 27 70  1  0
 27 71  1  0
 28 72  1  0
 29 73  1  0
 29 74  1  0
 29 75  1  0
 30 76  1  0
 30 77  1  0
 30 78  1  0
M  END
>  <meeko>  (16) 
{"is_sidechain": [false], "free_energy": 4.679, "intermolecular_energy": 3.167, "internal_energy": 2.171}

$$$$
