5280794
 OpenBabel09272609543D

 78 81  0  0  1  0  0  0  0  0999 V2000
    8.4552   -0.2636    0.4702 O   0  0  0  0  0  0  0  0  0  0  0  0
   -0.2457    0.6109   -0.2874 C   0  0  1  0  0  0  0  0  0  0  0  0
    0.4615   -0.6819    0.1854 C   0  0  2  0  0  0  0  0  0  0  0  0
    1.9172   -0.7997   -0.2816 C   0  0  1  0  0  0  0  0  0  0  0  0
    2.7292    0.4212    0.2333 C   0  0  1  0  0  0  0  0  0  0  0  0
   -1.6689    0.3503    0.2943 C   0  0  2  0  0  0  0  0  0  0  0  0
    0.5290    1.7831    0.3403 C   0  0  0  0  0  0  0  0  0  0  0  0
    4.2324    0.3694   -0.2555 C   0  0  2  0  0  0  0  0  0  0  0  0
   -0.5045   -1.7923   -0.1996 C   0  0  0  0  0  0  0  0  0  0  0  0
    2.0163    1.7674   -0.0541 C   0  0  0  0  0  0  0  0  0  0  0  0
   -1.8891   -1.1675    0.0166 C   0  0  0  0  0  0  0  0  0  0  0  0
    2.5479   -2.1061    0.2258 C   0  0  0  0  0  0  0  0  0  0  0  0
   -0.2962    0.7646   -1.8264 C   0  0  0  0  0  0  0  0  0  0  0  0
    4.8099   -1.0445   -0.0899 C   0  0  0  0  0  0  0  0  0  0  0  0
   -2.8596    1.2085   -0.2064 C   0  0  2  0  0  0  0  0  0  0  0  0
    5.0620    1.3641    0.6105 C   0  0  0  0  0  0  0  0  0  0  0  0
    4.0414   -2.1250    0.1373 C   0  0  0  0  0  0  0  0  0  0  0  0
    4.3540    0.7631   -1.7472 C   0  0  0  0  0  0  0  0  0  0  0  0
    6.3138   -1.1899   -0.1837 C   0  0  0  0  0  0  0  0  0  0  0  0
    6.5754    1.2416    0.4371 C   0  0  0  0  0  0  0  0  0  0  0  0
    7.0499   -0.1839    0.7028 C   0  0  2  0  0  0  0  0  0  0  0  0
   -2.6806    2.7050    0.0547 C   0  0  0  0  0  0  0  0  0  0  0  0
   -4.1449    0.7715    0.4706 C   0  0  0  0  0  0  0  0  0  0  0  0
   -5.2300    0.3359   -0.1908 C   0  0  0  0  0  0  0  0  0  0  0  0
   -6.5186   -0.0836    0.4858 C   0  0  2  0  0  0  0  0  0  0  0  0
   -6.8476   -1.5921    0.2781 C   0  0  0  0  0  0  0  0  0  0  0  0
   -7.6883    0.8171    0.0297 C   0  0  0  0  0  0  0  0  0  0  0  0
   -5.7743   -2.4954    0.8980 C   0  0  0  0  0  0  0  0  0  0  0  0
   -7.0757   -1.9949   -1.1827 C   0  0  0  0  0  0  0  0  0  0  0  0
   -7.5412    2.2661    0.4821 C   0  0  0  0  0  0  0  0  0  0  0  0
    8.7599   -1.1690    0.6384 H   0  0  0  0  0  0  0  0  0  0  0  0
    0.6357   -0.7169    1.2405 H   0  0  0  0  0  0  0  0  0  0  0  0
    1.9355   -0.8135   -1.3514 H   0  0  0  0  0  0  0  0  0  0  0  0
    2.7706    0.3566    1.3006 H   0  0  0  0  0  0  0  0  0  0  0  0
   -1.6732    0.6481    1.3220 H   0  0  0  0  0  0  0  0  0  0  0  0
    0.4533    1.7164    1.4056 H   0  0  0  0  0  0  0  0  0  0  0  0
    0.1004    2.6943   -0.0215 H   0  0  0  0  0  0  0  0  0  0  0  0
   -0.3706   -2.6482    0.4284 H   0  0  0  0  0  0  0  0  0  0  0  0
   -0.3590   -2.1368   -1.2021 H   0  0  0  0  0  0  0  0  0  0  0  0
    2.0888    1.9698   -1.1023 H   0  0  0  0  0  0  0  0  0  0  0  0
    2.5033    2.5100    0.5429 H   0  0  0  0  0  0  0  0  0  0  0  0
   -2.4909   -1.2970   -0.8585 H   0  0  0  0  0  0  0  0  0  0  0  0
   -2.3941   -1.6352    0.8359 H   0  0  0  0  0  0  0  0  0  0  0  0
    2.1643   -2.9161   -0.3587 H   0  0  0  0  0  0  0  0  0  0  0  0
    2.2942   -2.1951    1.2614 H   0  0  0  0  0  0  0  0  0  0  0  0
   -0.8371   -0.0562   -2.2492 H   0  0  0  0  0  0  0  0  0  0  0  0
    0.7000    0.7742   -2.2168 H   0  0  0  0  0  0  0  0  0  0  0  0
   -0.7865    1.6819   -2.0773 H   0  0  0  0  0  0  0  0  0  0  0  0
   -2.9018    1.0544   -1.2644 H   0  0  0  0  0  0  0  0  0  0  0  0
    4.8277    1.1879    1.6396 H   0  0  0  0  0  0  0  0  0  0  0  0
    4.7960    2.3480    0.2848 H   0  0  0  0  0  0  0  0  0  0  0  0
    4.5165   -3.0329    0.2594 H   0  0  0  0  0  0  0  0  0  0  0  0
    3.7848    0.0811   -2.3437 H   0  0  0  0  0  0  0  0  0  0  0  0
    5.3813    0.7246   -2.0437 H   0  0  0  0  0  0  0  0  0  0  0  0
    3.9798    1.7560   -1.8857 H   0  0  0  0  0  0  0  0  0  0  0  0
    6.6118   -1.0360   -1.1998 H   0  0  0  0  0  0  0  0  0  0  0  0
    6.5696   -2.1726    0.1536 H   0  0  0  0  0  0  0  0  0  0  0  0
    7.0597    1.9039    1.1239 H   0  0  0  0  0  0  0  0  0  0  0  0
    6.8215    1.4969   -0.5724 H   0  0  0  0  0  0  0  0  0  0  0  0
    6.8357   -0.4293    1.7220 H   0  0  0  0  0  0  0  0  0  0  0  0
   -2.6360    2.8802    1.1093 H   0  0  0  0  0  0  0  0  0  0  0  0
   -3.5080    3.2411   -0.3613 H   0  0  0  0  0  0  0  0  0  0  0  0
   -1.7727    3.0405   -0.4014 H   0  0  0  0  0  0  0  0  0  0  0  0
   -4.1883    0.8113    1.5009 H   0  0  0  0  0  0  0  0  0  0  0  0
   -5.1828    0.2841   -1.2204 H   0  0  0  0  0  0  0  0  0  0  0  0
   -6.3773    0.0469    1.5384 H   0  0  0  0  0  0  0  0  0  0  0  0
   -7.7786   -1.7344    0.7860 H   0  0  0  0  0  0  0  0  0  0  0  0
   -8.5977    0.4249    0.4347 H   0  0  0  0  0  0  0  0  0  0  0  0
   -7.6923    0.8164   -1.0403 H   0  0  0  0  0  0  0  0  0  0  0  0
   -4.8460   -2.3489    0.3864 H   0  0  0  0  0  0  0  0  0  0  0  0
   -6.0737   -3.5186    0.8078 H   0  0  0  0  0  0  0  0  0  0  0  0
   -5.6543   -2.2487    1.9323 H   0  0  0  0  0  0  0  0  0  0  0  0
   -6.1671   -1.8688   -1.7335 H   0  0  0  0  0  0  0  0  0  0  0  0
   -7.8392   -1.3775   -1.6079 H   0  0  0  0  0  0  0  0  0  0  0  0
   -7.3802   -3.0197   -1.2267 H   0  0  0  0  0  0  0  0  0  0  0  0
   -7.5332    2.3069    1.5513 H   0  0  0  0  0  0  0  0  0  0  0  0
   -8.3628    2.8414    0.1094 H   0  0  0  0  0  0  0  0  0  0  0  0
   -6.6243    2.6668    0.1031 H   0  0  0  0  0  0  0  0  0  0  0  0
  1 21  1  0  0  0  0
  1 31  1  0  0  0  0
  2  3  1  0  0  0  0
  2  6  1  0  0  0  0
  2  7  1  0  0  0  0
  2 13  1  6  0  0  0
  3  4  1  0  0  0  0
  3  9  1  0  0  0  0
  3 32  1  1  0  0  0
  4  5  1  0  0  0  0
  4 12  1  0  0  0  0
  4 33  1  6  0  0  0
  5  8  1  0  0  0  0
  5 10  1  0  0  0  0
  5 34  1  1  0  0  0
  6 11  1  0  0  0  0
  6 15  1  0  0  0  0
  6 35  1  1  0  0  0
  7 10  1  0  0  0  0
  7 36  1  0  0  0  0
  7 37  1  0  0  0  0
  8 14  1  0  0  0  0
  8 16  1  0  0  0  0
  8 18  1  6  0  0  0
  9 11  1  0  0  0  0
  9 38  1  0  0  0  0
  9 39  1  0  0  0  0
 10 40  1  0  0  0  0
 10 41  1  0  0  0  0
 11 42  1  0  0  0  0
 11 43  1  0  0  0  0
 12 17  1  0  0  0  0
 12 44  1  0  0  0  0
 12 45  1  0  0  0  0
 13 46  1  0  0  0  0
 13 47  1  0  0  0  0
 13 48  1  0  0  0  0
 14 17  2  0  0  0  0
 14 19  1  0  0  0  0
 15 22  1  0  0  0  0
 15 23  1  0  0  0  0
 15 49  1  6  0  0  0
 16 20  1  0  0  0  0
 16 50  1  0  0  0  0
 16 51  1  0  0  0  0
 17 52  1  0  0  0  0
 18 53  1  0  0  0  0
 18 54  1  0  0  0  0
 18 55  1  0  0  0  0
 19 21  1  0  0  0  0
 19 56  1  0  0  0  0
 19 57  1  0  0  0  0
 20 21  1  0  0  0  0
 20 58  1  0  0  0  0
 20 59  1  0  0  0  0
 21 60  1  1  0  0  0
 22 61  1  0  0  0  0
 22 62  1  0  0  0  0
 22 63  1  0  0  0  0
 23 24  2  0  0  0  0
 23 64  1  0  0  0  0
 24 25  1  0  0  0  0
 24 65  1  0  0  0  0
 25 26  1  0  0  0  0
 25 27  1  0  0  0  0
 25 66  1  1  0  0  0
 26 28  1  0  0  0  0
 26 29  1  0  0  0  0
 26 67  1  0  0  0  0
 27 30  1  0  0  0  0
 27 68  1  0  0  0  0
 27 69  1  0  0  0  0
 28 70  1  0  0  0  0
 28 71  1  0  0  0  0
 28 72  1  0  0  0  0
 29 73  1  0  0  0  0
 29 74  1  0  0  0  0
 29 75  1  0  0  0  0
 30 76  1  0  0  0  0
 30 77  1  0  0  0  0
 30 78  1  0  0  0  0
M  END
>  <PUBCHEM_COMPOUND_CID>
5280794

>  <PUBCHEM_CONFORMER_RMSD>
0.8

>  <PUBCHEM_CONFORMER_DIVERSEORDER>
1
13
16
24
14
20
9
6
2
18
22
21
4
5
23
17
12
15
7
19
11
3
8
10

>  <PUBCHEM_MMFF94_PARTIAL_CHARGES>
15
1 -0.68
12 0.14
14 -0.28
15 0.14
17 -0.29
19 0.14
21 0.28
23 -0.29
24 -0.29
25 0.14
51 0.15
63 0.15
64 0.15
65 0.4
8 0.14

>  <PUBCHEM_EFFECTIVE_ROTOR_COUNT>
7

>  <PUBCHEM_PHARMACOPHORE_FEATURES>
10
1 1 acceptor
1 1 donor
1 22 hydrophobe
1 30 hydrophobe
3 26 28 29 hydrophobe
4 24 25 26 27 hydrophobe
5 2 3 6 9 11 rings
6 2 3 4 5 7 10 rings
6 4 5 8 12 14 17 rings
6 8 14 16 19 20 21 rings

>  <PUBCHEM_HEAVY_ATOM_COUNT>
30

>  <PUBCHEM_ATOM_DEF_STEREO_COUNT>
9

>  <PUBCHEM_ATOM_UDEF_STEREO_COUNT>
0

>  <PUBCHEM_BOND_DEF_STEREO_COUNT>
1

>  <PUBCHEM_BOND_UDEF_STEREO_COUNT>
0

>  <PUBCHEM_ISOTOPIC_ATOM_COUNT>
0

>  <PUBCHEM_COMPONENT_COUNT>
1

>  <PUBCHEM_CACTVS_TAUTO_COUNT>
1

>  <PUBCHEM_CONFORMER_ID>
0050941A00000001

>  <PUBCHEM_MMFF94_ENERGY>
83.5092

>  <PUBCHEM_FEATURE_SELFOVERLAP>
51.118

>  <PUBCHEM_SHAPE_FINGERPRINT>
10 15 18261108595966985576
10050765 1 18122907521168389849
11135926 11 18113333099285906811
11578080 2 16700030872610390410
11724838 91 18335417980832979454
11963148 33 18335977631751332163
12166972 35 17894634772663406037
12236239 1 18273214197102233037
12516196 113 18413672409087563025
12838862 33 18338781365374664856
14251764 18 18410012160748558302
14394314 77 18411421675180401153
14849402 71 18130508651289530593
14856354 85 15267058177642162621
15183329 4 15791728616340732387
15849732 13 18202282506685873140
18608769 82 18411416241191761587
18681886 176 18342450474447148027
19315958 150 18057331592275757337
19841028 212 18188489056671508074
20028762 73 18272930531745845871
21130935 74 18343585114048643467
21267235 1 18412831257439416702
22149856 69 18271539614896473755
22224240 67 18334010610302247098
23522609 53 18195278613924339937
23559900 14 18409726297001404921
23569917 315 18335426755489017706
24771293 8 18259988205622527660
335352 9 18410014347799489718
34797466 226 17060342937962244284
350125 39 18411135844199023025
397830 11 16414334823690323315
4073 2 18187372051667776275
4325135 7 18409448076754946343
4340502 62 18409448081482566734
4625314 4 18341332206064265270
5104073 3 18264493879692423272
99344 41 18411418389039711571

>  <PUBCHEM_SHAPE_MULTIPOLES>
611.52
22.6
2.52
0.99
9.51
0.25
-0.39
1.69
2.2
2.57
0.24
-0.03
-0.03
-0.38

>  <PUBCHEM_SHAPE_SELFOVERLAP>
1265.898

>  <PUBCHEM_SHAPE_VOLUME>
349.8

>  <PUBCHEM_COORDINATE_TYPE>
2
5
10

>  <Energy>
103.288

$$$$
