native_redocked
     RDKit          3D

 51 50  0  0  0  0  0  0  0  0999 V2000
   67.7520   32.9580  122.3590 C   0  0  0  0  0  0  0  0  0  0  0  0
   67.8010   32.3180  121.0240 N   0  0  0  0  0  0  0  0  0  0  0  0
   66.8020   32.3860  120.1000 C   0  0  0  0  0  0  0  0  0  0  0  0
   65.7240   32.9950  120.2750 O   0  0  0  0  0  0  0  0  0  0  0  0
   67.1020   31.6060  118.7420 C   0  0  1  0  0  0  0  0  0  0  0  0
   65.7590   31.2850  118.1250 N   0  0  0  0  0  0  0  0  0  0  0  0
   65.3510   30.0360  117.8120 C   0  0  0  0  0  0  0  0  0  0  0  0
   66.0590   29.0170  118.0060 O   0  0  0  0  0  0  0  0  0  0  0  0
   63.9370   29.8810  117.1810 C   0  0  2  0  0  0  0  0  0  0  0  0
   62.9310   29.1100  118.1310 C   0  0  0  0  0  0  0  0  0  0  0  0
   61.5550   29.7320  118.4740 C   0  0  0  0  0  0  0  0  0  0  0  0
   61.1750   30.8090  117.4310 C   0  0  0  0  0  0  0  0  0  0  0  0
   60.4820   28.6660  118.3450 C   0  0  0  0  0  0  0  0  0  0  0  0
   64.1680   29.0710  115.8510 C   0  0  0  0  0  0  0  0  0  0  0  0
   64.7230   29.8760  114.7680 N   0  0  0  0  0  0  0  0  0  0  0  0
   64.1780   31.0170  114.5520 O   0  0  0  0  0  0  0  0  0  0  0  0
   65.7400   29.4930  113.9930 C   0  0  0  0  0  0  0  0  0  0  0  0
   65.7110   29.4870  112.8090 O   0  0  0  0  0  0  0  0  0  0  0  0
   68.0710   32.3900  117.7150 C   0  0  0  0  0  0  0  0  0  0  0  0
   67.9260   33.9560  117.8330 C   0  0  0  0  0  0  0  0  0  0  0  0
   69.5580   32.0200  117.9630 C   0  0  0  0  0  0  0  0  0  0  0  0
   67.7970   32.0490  116.1990 C   0  0  0  0  0  0  0  0  0  0  0  0
   67.8112   32.1845  123.1388 H   0  0  0  0  0  0  0  0  0  0  0  0
   68.5997   33.6510  122.4648 H   0  0  0  0  0  0  0  0  0  0  0  0
   66.8087   33.5138  122.4648 H   0  0  0  0  0  0  0  0  0  0  0  0
   68.6100   31.8090  120.7880 H   0  0  0  0  0  0  0  0  0  0  0  0
   67.6718   30.6936  118.9720 H   0  0  0  0  0  0  0  0  0  0  0  0
   65.1450   32.0320  117.9400 H   0  0  0  0  0  0  0  0  0  0  0  0
   63.4782   30.8653  117.0059 H   0  0  0  0  0  0  0  0  0  0  0  0
   62.7302   28.1376  117.6577 H   0  0  0  0  0  0  0  0  0  0  0  0
   63.4531   29.1048  119.0992 H   0  0  0  0  0  0  0  0  0  0  0  0
   61.6211   30.1533  119.4880 H   0  0  0  0  0  0  0  0  0  0  0  0
   60.8522   31.7238  117.9495 H   0  0  0  0  0  0  0  0  0  0  0  0
   62.0482   31.0334  116.8008 H   0  0  0  0  0  0  0  0  0  0  0  0
   60.3543   30.4357  116.8008 H   0  0  0  0  0  0  0  0  0  0  0  0
   60.1603   28.3464  119.3472 H   0  0  0  0  0  0  0  0  0  0  0  0
   59.6211   29.0767  117.7972 H   0  0  0  0  0  0  0  0  0  0  0  0
   60.8871   27.8024  117.7972 H   0  0  0  0  0  0  0  0  0  0  0  0
   64.8633   28.2453  116.0626 H   0  0  0  0  0  0  0  0  0  0  0  0
   63.1837   28.7122  115.5157 H   0  0  0  0  0  0  0  0  0  0  0  0
   64.3630   31.6100  115.2970 H   0  0  0  0  0  0  0  0  0  0  0  0
   66.6656   29.1612  114.4862 H   0  0  0  0  0  0  0  0  0  0  0  0
   67.8994   34.2428  118.8946 H   0  0  0  0  0  0  0  0  0  0  0  0
   68.7830   34.4415  117.3433 H   0  0  0  0  0  0  0  0  0  0  0  0
   66.9944   34.2759  117.3433 H   0  0  0  0  0  0  0  0  0  0  0  0
   69.7485   31.9726  119.0453 H   0  0  0  0  0  0  0  0  0  0  0  0
   69.7728   31.0410  117.5097 H   0  0  0  0  0  0  0  0  0  0  0  0
   70.2065   32.7842  117.5097 H   0  0  0  0  0  0  0  0  0  0  0  0
   67.1092   31.1930  116.1342 H   0  0  0  0  0  0  0  0  0  0  0  0
   67.3453   32.9207  115.7029 H   0  0  0  0  0  0  0  0  0  0  0  0
   68.7455   31.7956  115.7029 H   0  0  0  0  0  0  0  0  0  0  0  0
  1  2  1  0
  2  3  1  0
  3  4  2  0
  3  5  1  0
  5  6  1  0
  6  7  1  0
  7  8  2  0
  7  9  1  0
  9 10  1  0
 10 11  1  0
 11 12  1  0
 11 13  1  0
  9 14  1  0
 14 15  1  0
 15 16  1  0
 15 17  1  0
 17 18  2  0
  5 19  1  0
 19 20  1  0
 19 21  1  0
 19 22  1  0
  1 23  1  0
  1 24  1  0
  1 25  1  0
  2 26  1  0
  5 27  1  1
  6 28  1  0
  9 29  1  6
 10 30  1  0
 10 31  1  0
 11 32  1  0
 12 33  1  0
 12 34  1  0
 12 35  1  0
 13 36  1  0
 13 37  1  0
 13 38  1  0
 14 39  1  0
 14 40  1  0
 16 41  1  0
 17 42  1  0
 20 43  1  0
 20 44  1  0
 20 45  1  0
 21 46  1  0
 21 47  1  0
 21 48  1  0
 22 49  1  0
 22 50  1  0
 22 51  1  0
M  END
>  <meeko>  (1) 
{"is_sidechain": [false], "free_energy": -6.886, "intermolecular_energy": -10.71, "internal_energy": -0.923}

$$$$
native_redocked
     RDKit          3D

 51 50  0  0  0  0  0  0  0  0999 V2000
   67.7930   32.8310  122.4750 C   0  0  0  0  0  0  0  0  0  0  0  0
   67.8750   32.3540  121.0740 N   0  0  0  0  0  0  0  0  0  0  0  0
   66.8680   32.4650  120.1630 C   0  0  0  0  0  0  0  0  0  0  0  0
   65.7560   32.9810  120.4050 O   0  0  0  0  0  0  0  0  0  0  0  0
   67.2090   31.8660  118.7250 C   0  0  1  0  0  0  0  0  0  0  0  0
   65.8890   31.4810  118.0950 N   0  0  0  0  0  0  0  0  0  0  0  0
   65.5250   30.2100  117.8210 C   0  0  0  0  0  0  0  0  0  0  0  0
   66.2590   29.2220  118.0660 O   0  0  0  0  0  0  0  0  0  0  0  0
   64.1280   29.9890  117.1700 C   0  0  2  0  0  0  0  0  0  0  0  0
   63.1430   29.1820  118.1110 C   0  0  0  0  0  0  0  0  0  0  0  0
   61.7310   29.7390  118.4190 C   0  0  0  0  0  0  0  0  0  0  0  0
   61.3490   30.8320  117.3950 C   0  0  0  0  0  0  0  0  0  0  0  0
   60.7070   28.6370  118.2180 C   0  0  0  0  0  0  0  0  0  0  0  0
   64.4150   29.1800  115.8510 C   0  0  0  0  0  0  0  0  0  0  0  0
   64.7960   30.0250  114.7220 N   0  0  0  0  0  0  0  0  0  0  0  0
   64.1080   31.0910  114.5340 O   0  0  0  0  0  0  0  0  0  0  0  0
   65.7950   29.7470  113.8810 C   0  0  0  0  0  0  0  0  0  0  0  0
   65.6460   29.3340  112.7810 O   0  0  0  0  0  0  0  0  0  0  0  0
   68.0730   32.8460  117.7750 C   0  0  0  0  0  0  0  0  0  0  0  0
   67.9250   32.4810  116.2480 C   0  0  0  0  0  0  0  0  0  0  0  0
   67.6420   34.3250  117.9650 C   0  0  0  0  0  0  0  0  0  0  0  0
   69.6220   32.8150  118.0730 C   0  0  0  0  0  0  0  0  0  0  0  0
   67.9388   31.9829  123.1602 H   0  0  0  0  0  0  0  0  0  0  0  0
   68.5748   33.5842  122.6522 H   0  0  0  0  0  0  0  0  0  0  0  0
   66.8045   33.2799  122.6522 H   0  0  0  0  0  0  0  0  0  0  0  0
   68.7120   31.9270  120.7830 H   0  0  0  0  0  0  0  0  0  0  0  0
   67.8694   30.9949  118.8481 H   0  0  0  0  0  0  0  0  0  0  0  0
   65.2570   32.2020  117.8720 H   0  0  0  0  0  0  0  0  0  0  0  0
   63.6290   30.9507  116.9799 H   0  0  0  0  0  0  0  0  0  0  0  0
   63.0001   28.1946  117.6478 H   0  0  0  0  0  0  0  0  0  0  0  0
   63.6454   29.2159  119.0890 H   0  0  0  0  0  0  0  0  0  0  0  0
   61.7415   30.1306  119.4469 H   0  0  0  0  0  0  0  0  0  0  0  0
   61.0317   31.7399  117.9289 H   0  0  0  0  0  0  0  0  0  0  0  0
   62.2196   31.0633  116.7637 H   0  0  0  0  0  0  0  0  0  0  0  0
   60.5239   30.4707  116.7637 H   0  0  0  0  0  0  0  0  0  0  0  0
   60.3661   28.2701  119.1974 H   0  0  0  0  0  0  0  0  0  0  0  0
   59.8484   29.0324  117.6555 H   0  0  0  0  0  0  0  0  0  0  0  0
   61.1643   27.8097  117.6555 H   0  0  0  0  0  0  0  0  0  0  0  0
   65.2332   28.4716  116.0478 H   0  0  0  0  0  0  0  0  0  0  0  0
   63.4806   28.6703  115.5736 H   0  0  0  0  0  0  0  0  0  0  0  0
   64.5860   31.8530  114.8970 H   0  0  0  0  0  0  0  0  0  0  0  0
   66.8240   29.9124  114.2328 H   0  0  0  0  0  0  0  0  0  0  0  0
   67.5133   31.4655  116.1520 H   0  0  0  0  0  0  0  0  0  0  0  0
   67.2469   33.1989  115.7634 H   0  0  0  0  0  0  0  0  0  0  0  0
   68.9116   32.5240  115.7634 H   0  0  0  0  0  0  0  0  0  0  0  0
   67.5757   34.5525  119.0392 H   0  0  0  0  0  0  0  0  0  0  0  0
   68.3847   34.9866  117.4952 H   0  0  0  0  0  0  0  0  0  0  0  0
   66.6601   34.4840  117.4952 H   0  0  0  0  0  0  0  0  0  0  0  0
   69.7861   32.8117  119.1607 H   0  0  0  0  0  0  0  0  0  0  0  0
   70.0619   31.9079  117.6330 H   0  0  0  0  0  0  0  0  0  0  0  0
   70.0979   33.7038  117.6330 H   0  0  0  0  0  0  0  0  0  0  0  0
  1  2  1  0
  2  3  1  0
  3  4  2  0
  3  5  1  0
  5  6  1  0
  6  7  1  0
  7  8  2  0
  7  9  1  0
  9 10  1  0
 10 11  1  0
 11 12  1  0
 11 13  1  0
  9 14  1  0
 14 15  1  0
 15 16  1  0
 15 17  1  0
 17 18  2  0
  5 19  1  0
 19 20  1  0
 19 21  1  0
 19 22  1  0
  1 23  1  0
  1 24  1  0
  1 25  1  0
  2 26  1  0
  5 27  1  1
  6 28  1  0
  9 29  1  6
 10 30  1  0
 10 31  1  0
 11 32  1  0
 12 33  1  0
 12 34  1  0
 12 35  1  0
 13 36  1  0
 13 37  1  0
 13 38  1  0
 14 39  1  0
 14 40  1  0
 16 41  1  0
 17 42  1  0
 20 43  1  0
 20 44  1  0
 20 45  1  0
 21 46  1  0
 21 47  1  0
 21 48  1  0
 22 49  1  0
 22 50  1  0
 22 51  1  0
M  END
>  <meeko>  (2) 
{"is_sidechain": [false], "free_energy": -6.78, "intermolecular_energy": -10.59, "internal_energy": -0.879}

$$$$
native_redocked
     RDKit          3D

 51 50  0  0  0  0  0  0  0  0999 V2000
   66.7130   31.4110  123.1580 C   0  0  0  0  0  0  0  0  0  0  0  0
   67.0830   31.4500  121.7230 N   0  0  0  0  0  0  0  0  0  0  0  0
   66.4550   32.2130  120.7860 C   0  0  0  0  0  0  0  0  0  0  0  0
   65.4890   32.9680  121.0280 O   0  0  0  0  0  0  0  0  0  0  0  0
   67.0450   32.0680  119.3110 C   0  0  1  0  0  0  0  0  0  0  0  0
   65.9020   31.6100  118.4340 N   0  0  0  0  0  0  0  0  0  0  0  0
   65.7540   30.3450  117.9860 C   0  0  0  0  0  0  0  0  0  0  0  0
   66.5630   29.4240  118.2590 O   0  0  0  0  0  0  0  0  0  0  0  0
   64.5180   30.0420  117.0890 C   0  0  2  0  0  0  0  0  0  0  0  0
   63.4660   29.1000  117.8060 C   0  0  0  0  0  0  0  0  0  0  0  0
   62.1080   29.6730  118.2820 C   0  0  0  0  0  0  0  0  0  0  0  0
   61.6390   30.8020  117.3360 C   0  0  0  0  0  0  0  0  0  0  0  0
   61.0460   28.5950  118.1650 C   0  0  0  0  0  0  0  0  0  0  0  0
   65.1030   29.3370  115.8090 C   0  0  0  0  0  0  0  0  0  0  0  0
   65.1270   30.1990  114.6300 N   0  0  0  0  0  0  0  0  0  0  0  0
   64.1630   31.0360  114.5020 O   0  0  0  0  0  0  0  0  0  0  0  0
   66.0700   30.1550  113.6870 C   0  0  0  0  0  0  0  0  0  0  0  0
   67.2290   30.2720  113.8970 O   0  0  0  0  0  0  0  0  0  0  0  0
   67.7570   33.3990  118.7370 C   0  0  0  0  0  0  0  0  0  0  0  0
   69.0390   33.7950  119.5640 C   0  0  0  0  0  0  0  0  0  0  0  0
   68.1740   33.2090  117.2540 C   0  0  0  0  0  0  0  0  0  0  0  0
   66.8260   34.6740  118.7550 C   0  0  0  0  0  0  0  0  0  0  0  0
   67.6198   31.5066  123.7732 H   0  0  0  0  0  0  0  0  0  0  0  0
   66.0281   32.2419  123.3828 H   0  0  0  0  0  0  0  0  0  0  0  0
   66.2164   30.4555  123.3828 H   0  0  0  0  0  0  0  0  0  0  0  0
   67.8330   30.8850  121.4280 H   0  0  0  0  0  0  0  0  0  0  0  0
   67.8652   31.3351  119.3241 H   0  0  0  0  0  0  0  0  0  0  0  0
   65.2240   32.2750  118.1740 H   0  0  0  0  0  0  0  0  0  0  0  0
   63.9713   30.9671  116.8537 H   0  0  0  0  0  0  0  0  0  0  0  0
   63.2375   28.2862  117.1020 H   0  0  0  0  0  0  0  0  0  0  0  0
   63.9691   28.8306  118.7464 H   0  0  0  0  0  0  0  0  0  0  0  0
   62.2387   30.0348  119.3125 H   0  0  0  0  0  0  0  0  0  0  0  0
   61.2843   31.6559  117.9318 H   0  0  0  0  0  0  0  0  0  0  0  0
   62.4789   31.1213  116.7015 H   0  0  0  0  0  0  0  0  0  0  0  0
   60.8201   30.4322  116.7015 H   0  0  0  0  0  0  0  0  0  0  0  0
   60.7333   28.2776  119.1707 H   0  0  0  0  0  0  0  0  0  0  0  0
   60.1777   28.9934  117.6197 H   0  0  0  0  0  0  0  0  0  0  0  0
   61.4573   27.7327  117.6197 H   0  0  0  0  0  0  0  0  0  0  0  0
   66.1324   29.0168  116.0274 H   0  0  0  0  0  0  0  0  0  0  0  0
   64.4431   28.4882  115.5764 H   0  0  0  0  0  0  0  0  0  0  0  0
   64.4210   31.8870  114.8890 H   0  0  0  0  0  0  0  0  0  0  0  0
   65.7493   29.9998  112.6463 H   0  0  0  0  0  0  0  0  0  0  0  0
   68.8173   33.7265  120.6393 H   0  0  0  0  0  0  0  0  0  0  0  0
   69.8623   33.1093  119.3150 H   0  0  0  0  0  0  0  0  0  0  0  0
   69.3321   34.8256  119.3150 H   0  0  0  0  0  0  0  0  0  0  0  0
   69.1742   32.7533  117.2099 H   0  0  0  0  0  0  0  0  0  0  0  0
   67.4493   32.5522  116.7506 H   0  0  0  0  0  0  0  0  0  0  0  0
   68.1941   34.1868  116.7506 H   0  0  0  0  0  0  0  0  0  0  0  0
   66.6168   34.9606  119.7962 H   0  0  0  0  0  0  0  0  0  0  0  0
   67.3316   35.5045  118.2407 H   0  0  0  0  0  0  0  0  0  0  0  0
   65.8809   34.4452  118.2407 H   0  0  0  0  0  0  0  0  0  0  0  0
  1  2  1  0
  2  3  1  0
  3  4  2  0
  3  5  1  0
  5  6  1  0
  6  7  1  0
  7  8  2  0
  7  9  1  0
  9 10  1  0
 10 11  1  0
 11 12  1  0
 11 13  1  0
  9 14  1  0
 14 15  1  0
 15 16  1  0
 15 17  1  0
 17 18  2  0
  5 19  1  0
 19 20  1  0
 19 21  1  0
 19 22  1  0
  1 23  1  0
  1 24  1  0
  1 25  1  0
  2 26  1  0
  5 27  1  1
  6 28  1  0
  9 29  1  6
 10 30  1  0
 10 31  1  0
 11 32  1  0
 12 33  1  0
 12 34  1  0
 12 35  1  0
 13 36  1  0
 13 37  1  0
 13 38  1  0
 14 39  1  0
 14 40  1  0
 16 41  1  0
 17 42  1  0
 20 43  1  0
 20 44  1  0
 20 45  1  0
 21 46  1  0
 21 47  1  0
 21 48  1  0
 22 49  1  0
 22 50  1  0
 22 51  1  0
M  END
>  <meeko>  (3) 
{"is_sidechain": [false], "free_energy": -6.537, "intermolecular_energy": -10.36, "internal_energy": -0.732}

$$$$
native_redocked
     RDKit          3D

 51 50  0  0  0  0  0  0  0  0999 V2000
   66.1340   31.3620  122.9240 C   0  0  0  0  0  0  0  0  0  0  0  0
   66.5880   31.0700  121.5440 N   0  0  0  0  0  0  0  0  0  0  0  0
   66.2640   31.8170  120.4530 C   0  0  0  0  0  0  0  0  0  0  0  0
   65.5420   32.8370  120.4890 O   0  0  0  0  0  0  0  0  0  0  0  0
   66.8780   31.2850  119.0800 C   0  0  1  0  0  0  0  0  0  0  0  0
   65.7130   31.0920  118.1350 N   0  0  0  0  0  0  0  0  0  0  0  0
   65.3730   29.9060  117.5880 C   0  0  0  0  0  0  0  0  0  0  0  0
   66.0000   28.8430  117.8170 O   0  0  0  0  0  0  0  0  0  0  0  0
   64.1440   29.8830  116.6320 C   0  0  2  0  0  0  0  0  0  0  0  0
   64.5290   30.2590  115.1430 C   0  0  0  0  0  0  0  0  0  0  0  0
   65.9980   30.1370  114.6650 C   0  0  0  0  0  0  0  0  0  0  0  0
   66.0650   29.3880  113.3150 C   0  0  0  0  0  0  0  0  0  0  0  0
   66.5410   31.5240  114.3720 C   0  0  0  0  0  0  0  0  0  0  0  0
   63.1430   30.9430  117.2260 C   0  0  0  0  0  0  0  0  0  0  0  0
   61.8240   30.3930  117.5270 N   0  0  0  0  0  0  0  0  0  0  0  0
   60.8090   31.0440  117.0900 O   0  0  0  0  0  0  0  0  0  0  0  0
   61.6190   29.2790  118.2320 C   0  0  0  0  0  0  0  0  0  0  0  0
   61.1900   28.2730  117.7800 O   0  0  0  0  0  0  0  0  0  0  0  0
   68.0270   32.2260  118.4460 C   0  0  0  0  0  0  0  0  0  0  0  0
   68.9510   32.8670  119.5510 C   0  0  0  0  0  0  0  0  0  0  0  0
   68.9250   31.4230  117.4680 C   0  0  0  0  0  0  0  0  0  0  0  0
   67.4630   33.4370  117.6060 C   0  0  0  0  0  0  0  0  0  0  0  0
   66.8340   30.9118  123.6433 H   0  0  0  0  0  0  0  0  0  0  0  0
   66.1014   32.4509  123.0766 H   0  0  0  0  0  0  0  0  0  0  0  0
   65.1297   30.9401  123.0766 H   0  0  0  0  0  0  0  0  0  0  0  0
   67.1620   30.2820  121.4070 H   0  0  0  0  0  0  0  0  0  0  0  0
   67.4094   30.3404  119.2678 H   0  0  0  0  0  0  0  0  0  0  0  0
   65.1710   31.8810  117.9040 H   0  0  0  0  0  0  0  0  0  0  0  0
   63.7113   28.8732  116.5766 H   0  0  0  0  0  0  0  0  0  0  0  0
   63.9276   29.6123  114.4872 H   0  0  0  0  0  0  0  0  0  0  0  0
   64.3397   31.3417  115.1001 H   0  0  0  0  0  0  0  0  0  0  0  0
   66.5635   29.6120  115.4490 H   0  0  0  0  0  0  0  0  0  0  0  0
   66.1616   28.3079  113.4994 H   0  0  0  0  0  0  0  0  0  0  0  0
   65.1460   29.5815  112.7423 H   0  0  0  0  0  0  0  0  0  0  0  0
   66.9351   29.7415  112.7423 H   0  0  0  0  0  0  0  0  0  0  0  0
   66.7451   32.0454  115.3188 H   0  0  0  0  0  0  0  0  0  0  0  0
   67.4720   31.4384  113.7924 H   0  0  0  0  0  0  0  0  0  0  0  0
   65.7993   32.0932  113.7924 H   0  0  0  0  0  0  0  0  0  0  0  0
   63.5728   31.3455  118.1551 H   0  0  0  0  0  0  0  0  0  0  0  0
   63.0027   31.7204  116.4605 H   0  0  0  0  0  0  0  0  0  0  0  0
   60.1470   30.4210  116.7510 H   0  0  0  0  0  0  0  0  0  0  0  0
   61.8650   29.2968  119.3040 H   0  0  0  0  0  0  0  0  0  0  0  0
   68.5687   32.6018  120.5477 H   0  0  0  0  0  0  0  0  0  0  0  0
   69.9764   32.4853  119.4381 H   0  0  0  0  0  0  0  0  0  0  0  0
   68.9526   33.9612  119.4381 H   0  0  0  0  0  0  0  0  0  0  0  0
   69.6245   30.7975  118.0421 H   0  0  0  0  0  0  0  0  0  0  0  0
   68.2949   30.7816  116.8343 H   0  0  0  0  0  0  0  0  0  0  0  0
   69.4923   32.1206  116.8343 H   0  0  0  0  0  0  0  0  0  0  0  0
   67.0989   34.2188  118.2888 H   0  0  0  0  0  0  0  0  0  0  0  0
   68.2627   33.8474  116.9718 H   0  0  0  0  0  0  0  0  0  0  0  0
   66.6343   33.0890  116.9718 H   0  0  0  0  0  0  0  0  0  0  0  0
  1  2  1  0
  2  3  1  0
  3  4  2  0
  3  5  1  0
  5  6  1  0
  6  7  1  0
  7  8  2  0
  7  9  1  0
  9 10  1  0
 10 11  1  0
 11 12  1  0
 11 13  1  0
  9 14  1  0
 14 15  1  0
 15 16  1  0
 15 17  1  0
 17 18  2  0
  5 19  1  0
 19 20  1  0
 19 21  1  0
 19 22  1  0
  1 23  1  0
  1 24  1  0
  1 25  1  0
  2 26  1  0
  5 27  1  1
  6 28  1  0
  9 29  1  6
 10 30  1  0
 10 31  1  0
 11 32  1  0
 12 33  1  0
 12 34  1  0
 12 35  1  0
 13 36  1  0
 13 37  1  0
 13 38  1  0
 14 39  1  0
 14 40  1  0
 16 41  1  0
 17 42  1  0
 20 43  1  0
 20 44  1  0
 20 45  1  0
 21 46  1  0
 21 47  1  0
 21 48  1  0
 22 49  1  0
 22 50  1  0
 22 51  1  0
M  END
>  <meeko>  (4) 
{"is_sidechain": [false], "free_energy": -6.383, "intermolecular_energy": -9.596, "internal_energy": -1.255}

$$$$
native_redocked
     RDKit          3D

 51 50  0  0  0  0  0  0  0  0999 V2000
   66.0800   31.3120  122.4610 C   0  0  0  0  0  0  0  0  0  0  0  0
   66.6520   31.0270  121.1240 N   0  0  0  0  0  0  0  0  0  0  0  0
   66.3630   31.7340  119.9960 C   0  0  0  0  0  0  0  0  0  0  0  0
   65.5780   32.7060  119.9580 O   0  0  0  0  0  0  0  0  0  0  0  0
   67.1090   31.2190  118.6830 C   0  0  1  0  0  0  0  0  0  0  0  0
   66.0360   30.9800  117.6450 N   0  0  0  0  0  0  0  0  0  0  0  0
   65.7200   29.7630  117.1520 C   0  0  0  0  0  0  0  0  0  0  0  0
   66.2970   28.7080  117.5130 O   0  0  0  0  0  0  0  0  0  0  0  0
   64.5890   29.6940  116.0850 C   0  0  2  0  0  0  0  0  0  0  0  0
   65.0140   30.3480  114.7080 C   0  0  0  0  0  0  0  0  0  0  0  0
   66.4310   30.1010  114.1340 C   0  0  0  0  0  0  0  0  0  0  0  0
   66.3400   29.5440  112.6950 C   0  0  0  0  0  0  0  0  0  0  0  0
   67.1510   31.4300  113.9970 C   0  0  0  0  0  0  0  0  0  0  0  0
   63.3800   30.4790  116.7180 C   0  0  0  0  0  0  0  0  0  0  0  0
   62.3100   29.6110  117.2010 N   0  0  0  0  0  0  0  0  0  0  0  0
   62.4660   28.3480  117.0350 O   0  0  0  0  0  0  0  0  0  0  0  0
   61.1930   30.0500  117.7830 C   0  0  0  0  0  0  0  0  0  0  0  0
   60.4210   30.7900  117.2730 O   0  0  0  0  0  0  0  0  0  0  0  0
   68.2720   32.2000  118.1410 C   0  0  0  0  0  0  0  0  0  0  0  0
   67.7100   33.3200  117.1850 C   0  0  0  0  0  0  0  0  0  0  0  0
   69.0090   32.8900  119.3190 C   0  0  0  0  0  0  0  0  0  0  0  0
   69.3940   31.4570  117.3160 C   0  0  0  0  0  0  0  0  0  0  0  0
   66.7760   30.9652  123.2391 H   0  0  0  0  0  0  0  0  0  0  0  0
   65.9203   32.3950  122.5682 H   0  0  0  0  0  0  0  0  0  0  0  0
   65.1192   30.7873  122.5682 H   0  0  0  0  0  0  0  0  0  0  0  0
   67.2820   30.2750  121.0450 H   0  0  0  0  0  0  0  0  0  0  0  0
   67.6562   30.2950  118.9214 H   0  0  0  0  0  0  0  0  0  0  0  0
   65.5370   31.7590  117.3080 H   0  0  0  0  0  0  0  0  0  0  0  0
   64.3406   28.6491  115.8473 H   0  0  0  0  0  0  0  0  0  0  0  0
   64.2993   29.9890  113.9528 H   0  0  0  0  0  0  0  0  0  0  0  0
   65.0180   31.4249  114.9321 H   0  0  0  0  0  0  0  0  0  0  0  0
   66.9483   29.4021  114.8078 H   0  0  0  0  0  0  0  0  0  0  0  0
   66.1627   28.4590  112.7323 H   0  0  0  0  0  0  0  0  0  0  0  0
   65.5099   30.0331  112.1643 H   0  0  0  0  0  0  0  0  0  0  0  0
   67.2826   29.7435  112.1643 H   0  0  0  0  0  0  0  0  0  0  0  0
   67.3695   31.8334  114.9968 H   0  0  0  0  0  0  0  0  0  0  0  0
   68.0924   31.2821  113.4475 H   0  0  0  0  0  0  0  0  0  0  0  0
   66.5130   32.1378  113.4475 H   0  0  0  0  0  0  0  0  0  0  0  0
   63.7555   31.0726  117.5645 H   0  0  0  0  0  0  0  0  0  0  0  0
   62.9520   31.1084  115.9239 H   0  0  0  0  0  0  0  0  0  0  0  0
   61.8530   27.8680  117.6130 H   0  0  0  0  0  0  0  0  0  0  0  0
   60.9742   29.7022  118.8034 H   0  0  0  0  0  0  0  0  0  0  0  0
   67.2971   34.1428  117.7871 H   0  0  0  0  0  0  0  0  0  0  0  0
   68.5231   33.7022  116.5503 H   0  0  0  0  0  0  0  0  0  0  0  0
   66.9176   32.8966  116.5503 H   0  0  0  0  0  0  0  0  0  0  0  0
   68.6083   32.5149  120.2723 H   0  0  0  0  0  0  0  0  0  0  0  0
   70.0844   32.6665  119.2600 H   0  0  0  0  0  0  0  0  0  0  0  0
   68.8568   33.9778  119.2600 H   0  0  0  0  0  0  0  0  0  0  0  0
   70.1066   30.9851  118.0085 H   0  0  0  0  0  0  0  0  0  0  0  0
   68.9328   30.6852  116.6823 H   0  0  0  0  0  0  0  0  0  0  0  0
   69.9246   32.1829  116.6823 H   0  0  0  0  0  0  0  0  0  0  0  0
  1  2  1  0
  2  3  1  0
  3  4  2  0
  3  5  1  0
  5  6  1  0
  6  7  1  0
  7  8  2  0
  7  9  1  0
  9 10  1  0
 10 11  1  0
 11 12  1  0
 11 13  1  0
  9 14  1  0
 14 15  1  0
 15 16  1  0
 15 17  1  0
 17 18  2  0
  5 19  1  0
 19 20  1  0
 19 21  1  0
 19 22  1  0
  1 23  1  0
  1 24  1  0
  1 25  1  0
  2 26  1  0
  5 27  1  1
  6 28  1  0
  9 29  1  6
 10 30  1  0
 10 31  1  0
 11 32  1  0
 12 33  1  0
 12 34  1  0
 12 35  1  0
 13 36  1  0
 13 37  1  0
 13 38  1  0
 14 39  1  0
 14 40  1  0
 16 41  1  0
 17 42  1  0
 20 43  1  0
 20 44  1  0
 20 45  1  0
 21 46  1  0
 21 47  1  0
 21 48  1  0
 22 49  1  0
 22 50  1  0
 22 51  1  0
M  END
>  <meeko>  (5) 
{"is_sidechain": [false], "free_energy": -6.273, "intermolecular_energy": -9.459, "internal_energy": -1.22}

$$$$
native_redocked
     RDKit          3D

 51 50  0  0  0  0  0  0  0  0999 V2000
   66.4720   36.4020  117.0060 C   0  0  0  0  0  0  0  0  0  0  0  0
   66.9110   35.0320  117.3620 N   0  0  0  0  0  0  0  0  0  0  0  0
   67.2010   34.6210  118.6270 C   0  0  0  0  0  0  0  0  0  0  0  0
   67.1340   35.3550  119.6370 O   0  0  0  0  0  0  0  0  0  0  0  0
   67.6560   33.0970  118.7400 C   0  0  1  0  0  0  0  0  0  0  0  0
   66.6240   32.2830  117.9910 N   0  0  0  0  0  0  0  0  0  0  0  0
   65.5410   31.7210  118.5700 C   0  0  0  0  0  0  0  0  0  0  0  0
   65.2910   31.8230  119.7960 O   0  0  0  0  0  0  0  0  0  0  0  0
   64.5770   30.9130  117.6530 C   0  0  2  0  0  0  0  0  0  0  0  0
   63.8210   29.7620  118.4350 C   0  0  0  0  0  0  0  0  0  0  0  0
   62.2890   29.5930  118.2790 C   0  0  0  0  0  0  0  0  0  0  0  0
   61.7120   30.7140  117.3850 C   0  0  0  0  0  0  0  0  0  0  0  0
   62.0060   28.3050  117.5270 C   0  0  0  0  0  0  0  0  0  0  0  0
   65.4950   30.3030  116.5290 C   0  0  0  0  0  0  0  0  0  0  0  0
   64.7720   29.9720  115.3040 N   0  0  0  0  0  0  0  0  0  0  0  0
   64.1160   30.9190  114.7410 O   0  0  0  0  0  0  0  0  0  0  0  0
   64.7450   28.7560  114.7550 C   0  0  0  0  0  0  0  0  0  0  0  0
   64.5140   28.5440  113.6130 O   0  0  0  0  0  0  0  0  0  0  0  0
   69.1560   32.8020  118.2200 C   0  0  0  0  0  0  0  0  0  0  0  0
   70.2110   32.8290  119.3910 C   0  0  0  0  0  0  0  0  0  0  0  0
   69.2400   31.4170  117.5230 C   0  0  0  0  0  0  0  0  0  0  0  0
   69.6750   33.8440  117.1540 C   0  0  0  0  0  0  0  0  0  0  0  0
   66.2874   36.9782  117.9246 H   0  0  0  0  0  0  0  0  0  0  0  0
   67.2567   36.8964  116.4146 H   0  0  0  0  0  0  0  0  0  0  0  0
   65.5461   36.3483  116.4146 H   0  0  0  0  0  0  0  0  0  0  0  0
   67.0000   34.3750  116.6340 H   0  0  0  0  0  0  0  0  0  0  0  0
   67.7022   32.8158  119.8024 H   0  0  0  0  0  0  0  0  0  0  0  0
   66.7490   32.1560  117.0230 H   0  0  0  0  0  0  0  0  0  0  0  0
   63.7858   31.5626  117.2504 H   0  0  0  0  0  0  0  0  0  0  0  0
   64.2783   28.8121  118.1210 H   0  0  0  0  0  0  0  0  0  0  0  0
   63.9357   30.0563  119.4887 H   0  0  0  0  0  0  0  0  0  0  0  0
   61.8452   29.6075  119.2854 H   0  0  0  0  0  0  0  0  0  0  0  0
   61.3006   31.5133  118.0189 H   0  0  0  0  0  0  0  0  0  0  0  0
   62.5110   31.1243  116.7499 H   0  0  0  0  0  0  0  0  0  0  0  0
   60.9138   30.3022  116.7499 H   0  0  0  0  0  0  0  0  0  0  0  0
   61.8274   27.4921  118.2463 H   0  0  0  0  0  0  0  0  0  0  0  0
   61.1156   28.4375  116.8949 H   0  0  0  0  0  0  0  0  0  0  0  0
   62.8700   28.0520  116.8949 H   0  0  0  0  0  0  0  0  0  0  0  0
   66.2788   31.0348  116.2840 H   0  0  0  0  0  0  0  0  0  0  0  0
   65.9105   29.3642  116.9239 H   0  0  0  0  0  0  0  0  0  0  0  0
   64.0980   31.6930  115.3260 H   0  0  0  0  0  0  0  0  0  0  0  0
   64.9509   27.8937  115.4062 H   0  0  0  0  0  0  0  0  0  0  0  0
   69.6863   32.8156  120.3577 H   0  0  0  0  0  0  0  0  0  0  0  0
   70.8644   31.9473  119.3162 H   0  0  0  0  0  0  0  0  0  0  0  0
   70.8185   33.7430  119.3162 H   0  0  0  0  0  0  0  0  0  0  0  0
   69.2880   30.6253  118.2852 H   0  0  0  0  0  0  0  0  0  0  0  0
   68.3492   31.2679  116.8950 H   0  0  0  0  0  0  0  0  0  0  0  0
   70.1422   31.3767  116.8950 H   0  0  0  0  0  0  0  0  0  0  0  0
   70.1078   34.7130  117.6712 H   0  0  0  0  0  0  0  0  0  0  0  0
   70.4434   33.3722  116.5239 H   0  0  0  0  0  0  0  0  0  0  0  0
   68.8355   34.1730  116.5239 H   0  0  0  0  0  0  0  0  0  0  0  0
  1  2  1  0
  2  3  1  0
  3  4  2  0
  3  5  1  0
  5  6  1  0
  6  7  1  0
  7  8  2  0
  7  9  1  0
  9 10  1  0
 10 11  1  0
 11 12  1  0
 11 13  1  0
  9 14  1  0
 14 15  1  0
 15 16  1  0
 15 17  1  0
 17 18  2  0
  5 19  1  0
 19 20  1  0
 19 21  1  0
 19 22  1  0
  1 23  1  0
  1 24  1  0
  1 25  1  0
  2 26  1  0
  5 27  1  1
  6 28  1  0
  9 29  1  6
 10 30  1  0
 10 31  1  0
 11 32  1  0
 12 33  1  0
 12 34  1  0
 12 35  1  0
 13 36  1  0
 13 37  1  0
 13 38  1  0
 14 39  1  0
 14 40  1  0
 16 41  1  0
 17 42  1  0
 20 43  1  0
 20 44  1  0
 20 45  1  0
 21 46  1  0
 21 47  1  0
 21 48  1  0
 22 49  1  0
 22 50  1  0
 22 51  1  0
M  END
>  <meeko>  (6) 
{"is_sidechain": [false], "free_energy": -6.152, "intermolecular_energy": -9.776, "internal_energy": -0.716}

$$$$
native_redocked
     RDKit          3D

 51 50  0  0  0  0  0  0  0  0999 V2000
   65.5600   27.8940  109.4070 C   0  0  0  0  0  0  0  0  0  0  0  0
   65.9650   28.8730  110.4420 N   0  0  0  0  0  0  0  0  0  0  0  0
   65.9860   28.6160  111.7800 C   0  0  0  0  0  0  0  0  0  0  0  0
   65.6590   27.5230  112.2900 O   0  0  0  0  0  0  0  0  0  0  0  0
   66.4580   29.8440  112.6820 C   0  0  1  0  0  0  0  0  0  0  0  0
   66.2630   29.4200  114.1210 N   0  0  0  0  0  0  0  0  0  0  0  0
   65.3000   29.9120  114.9290 C   0  0  0  0  0  0  0  0  0  0  0  0
   64.4710   30.7780  114.5560 O   0  0  0  0  0  0  0  0  0  0  0  0
   65.2390   29.3670  116.3860 C   0  0  2  0  0  0  0  0  0  0  0  0
   63.7920   28.8610  116.7830 C   0  0  0  0  0  0  0  0  0  0  0  0
   62.9660   29.6260  117.8470 C   0  0  0  0  0  0  0  0  0  0  0  0
   62.0610   30.6800  117.1700 C   0  0  0  0  0  0  0  0  0  0  0  0
   62.0080   28.6600  118.5200 C   0  0  0  0  0  0  0  0  0  0  0  0
   65.6660   30.5790  117.2950 C   0  0  0  0  0  0  0  0  0  0  0  0
   67.0160   30.4510  117.8390 N   0  0  0  0  0  0  0  0  0  0  0  0
   67.1500   29.7450  118.9020 O   0  0  0  0  0  0  0  0  0  0  0  0
   68.0950   31.0300  117.3100 C   0  0  0  0  0  0  0  0  0  0  0  0
   68.1600   32.1730  117.0080 O   0  0  0  0  0  0  0  0  0  0  0  0
   67.9650   30.3490  112.3970 C   0  0  0  0  0  0  0  0  0  0  0  0
   68.5550   31.1790  113.6010 C   0  0  0  0  0  0  0  0  0  0  0  0
   68.9100   29.1490  112.1240 C   0  0  0  0  0  0  0  0  0  0  0  0
   68.0910   31.2840  111.1310 C   0  0  0  0  0  0  0  0  0  0  0  0
   65.1827   26.9820  109.8926 H   0  0  0  0  0  0  0  0  0  0  0  0
   64.7683   28.3298  108.7798 H   0  0  0  0  0  0  0  0  0  0  0  0
   66.4282   27.6431  108.7798 H   0  0  0  0  0  0  0  0  0  0  0  0
   66.2380   29.7710  110.1430 H   0  0  0  0  0  0  0  0  0  0  0  0
   65.8499   30.7258  112.4318 H   0  0  0  0  0  0  0  0  0  0  0  0
   66.8750   28.7430  114.4900 H   0  0  0  0  0  0  0  0  0  0  0  0
   65.8973   28.4936  116.5035 H   0  0  0  0  0  0  0  0  0  0  0  0
   63.1935   28.8564  115.8601 H   0  0  0  0  0  0  0  0  0  0  0  0
   63.9878   27.8920  117.2654 H   0  0  0  0  0  0  0  0  0  0  0  0
   63.6725   30.0893  118.5514 H   0  0  0  0  0  0  0  0  0  0  0  0
   61.5503   31.2748  117.9417 H   0  0  0  0  0  0  0  0  0  0  0  0
   62.6757   31.3428  116.5432 H   0  0  0  0  0  0  0  0  0  0  0  0
   61.3128   30.1726  116.5432 H   0  0  0  0  0  0  0  0  0  0  0  0
   62.1004   28.7531  119.6121 H   0  0  0  0  0  0  0  0  0  0  0  0
   60.9770   28.8958  118.2178 H   0  0  0  0  0  0  0  0  0  0  0  0
   62.2524   27.6310  118.2178 H   0  0  0  0  0  0  0  0  0  0  0  0
   65.6184   31.4990  116.6939 H   0  0  0  0  0  0  0  0  0  0  0  0
   64.9734   30.6031  118.1492 H   0  0  0  0  0  0  0  0  0  0  0  0
   67.0550   28.8050  118.6800 H   0  0  0  0  0  0  0  0  0  0  0  0
   68.9838   30.4037  117.1432 H   0  0  0  0  0  0  0  0  0  0  0  0
   68.2334   30.7266  114.5507 H   0  0  0  0  0  0  0  0  0  0  0  0
   69.6536   31.1743  113.5461 H   0  0  0  0  0  0  0  0  0  0  0  0
   68.1895   32.2151  113.5461 H   0  0  0  0  0  0  0  0  0  0  0  0
   69.2462   28.7221  113.0804 H   0  0  0  0  0  0  0  0  0  0  0  0
   68.3713   28.3814  111.5490 H   0  0  0  0  0  0  0  0  0  0  0  0
   69.7825   29.4928  111.5490 H   0  0  0  0  0  0  0  0  0  0  0  0
   68.2313   32.3253  111.4567 H   0  0  0  0  0  0  0  0  0  0  0  0
   68.9548   30.9691  110.5271 H   0  0  0  0  0  0  0  0  0  0  0  0
   67.1746   31.2090  110.5271 H   0  0  0  0  0  0  0  0  0  0  0  0
  1  2  1  0
  2  3  1  0
  3  4  2  0
  3  5  1  0
  5  6  1  0
  6  7  1  0
  7  8  2  0
  7  9  1  0
  9 10  1  0
 10 11  1  0
 11 12  1  0
 11 13  1  0
  9 14  1  0
 14 15  1  0
 15 16  1  0
 15 17  1  0
 17 18  2  0
  5 19  1  0
 19 20  1  0
 19 21  1  0
 19 22  1  0
  1 23  1  0
  1 24  1  0
  1 25  1  0
  2 26  1  0
  5 27  1  6
  6 28  1  0
  9 29  1  6
 10 30  1  0
 10 31  1  0
 11 32  1  0
 12 33  1  0
 12 34  1  0
 12 35  1  0
 13 36  1  0
 13 37  1  0
 13 38  1  0
 14 39  1  0
 14 40  1  0
 16 41  1  0
 17 42  1  0
 20 43  1  0
 20 44  1  0
 20 45  1  0
 21 46  1  0
 21 47  1  0
 21 48  1  0
 22 49  1  0
 22 50  1  0
 22 51  1  0
M  END
>  <meeko>  (7) 
{"is_sidechain": [false], "free_energy": -6.128, "intermolecular_energy": -9.678, "internal_energy": -0.777}

$$$$
native_redocked
     RDKit          3D

 51 50  0  0  0  0  0  0  0  0999 V2000
   66.4090   33.8700  119.6880 C   0  0  0  0  0  0  0  0  0  0  0  0
   66.7770   32.9790  118.5620 N   0  0  0  0  0  0  0  0  0  0  0  0
   68.0130   32.4360  118.3810 C   0  0  0  0  0  0  0  0  0  0  0  0
   68.9840   32.6300  119.1450 O   0  0  0  0  0  0  0  0  0  0  0  0
   68.1490   31.5160  117.0860 C   0  0  1  0  0  0  0  0  0  0  0  0
   66.7420   31.1380  116.6770 N   0  0  0  0  0  0  0  0  0  0  0  0
   66.1320   29.9900  117.0450 C   0  0  0  0  0  0  0  0  0  0  0  0
   66.6840   29.1230  117.7660 O   0  0  0  0  0  0  0  0  0  0  0  0
   64.6800   29.7560  116.5350 C   0  0  2  0  0  0  0  0  0  0  0  0
   63.7160   29.2290  117.6760 C   0  0  0  0  0  0  0  0  0  0  0  0
   62.1800   29.2910  117.4860 C   0  0  0  0  0  0  0  0  0  0  0  0
   61.4590   28.8490  118.7790 C   0  0  0  0  0  0  0  0  0  0  0  0
   61.7630   30.7360  117.2770 C   0  0  0  0  0  0  0  0  0  0  0  0
   64.8150   28.6850  115.3910 C   0  0  0  0  0  0  0  0  0  0  0  0
   65.1890   29.2560  114.1000 N   0  0  0  0  0  0  0  0  0  0  0  0
   65.0420   30.5220  113.9590 O   0  0  0  0  0  0  0  0  0  0  0  0
   65.6540   28.5440  113.0710 C   0  0  0  0  0  0  0  0  0  0  0  0
   65.6380   28.9100  111.9450 O   0  0  0  0  0  0  0  0  0  0  0  0
   68.9760   32.1820  115.8700 C   0  0  0  0  0  0  0  0  0  0  0  0
   68.5260   31.6260  114.4650 C   0  0  0  0  0  0  0  0  0  0  0  0
   68.8020   33.7250  115.8590 C   0  0  0  0  0  0  0  0  0  0  0  0
   70.5320   31.9320  115.9490 C   0  0  0  0  0  0  0  0  0  0  0  0
   66.6187   33.3622  120.6410 H   0  0  0  0  0  0  0  0  0  0  0  0
   66.9977   34.7973  119.6293 H   0  0  0  0  0  0  0  0  0  0  0  0
   65.3375   34.1116  119.6293 H   0  0  0  0  0  0  0  0  0  0  0  0
   66.0810   32.7660  117.8990 H   0  0  0  0  0  0  0  0  0  0  0  0
   68.7508   30.6306  117.3389 H   0  0  0  0  0  0  0  0  0  0  0  0
   66.2420   31.7660  116.1090 H   0  0  0  0  0  0  0  0  0  0  0  0
   64.2326   30.6980  116.1851 H   0  0  0  0  0  0  0  0  0  0  0  0
   63.9721   28.1726  117.8445 H   0  0  0  0  0  0  0  0  0  0  0  0
   63.8958   29.9327  118.5021 H   0  0  0  0  0  0  0  0  0  0  0  0
   61.9209   28.6436  116.6353 H   0  0  0  0  0  0  0  0  0  0  0  0
   62.0278   29.1977  119.6535 H   0  0  0  0  0  0  0  0  0  0  0  0
   60.4485   29.2830  118.8020 H   0  0  0  0  0  0  0  0  0  0  0  0
   61.3873   27.7516  118.8020 H   0  0  0  0  0  0  0  0  0  0  0  0
   61.6227   31.2221  118.2538 H   0  0  0  0  0  0  0  0  0  0  0  0
   62.5450   31.2654  116.7129 H   0  0  0  0  0  0  0  0  0  0  0  0
   60.8192   30.7673  116.7129 H   0  0  0  0  0  0  0  0  0  0  0  0
   65.5844   27.9561  115.6854 H   0  0  0  0  0  0  0  0  0  0  0  0
   63.8263   28.2197  115.2649 H   0  0  0  0  0  0  0  0  0  0  0  0
   65.2920   30.7790  113.0580 H   0  0  0  0  0  0  0  0  0  0  0  0
   66.0800   27.5522  113.2830 H   0  0  0  0  0  0  0  0  0  0  0  0
   67.8399   30.7783  114.6088 H   0  0  0  0  0  0  0  0  0  0  0  0
   68.0139   32.4209  113.9030 H   0  0  0  0  0  0  0  0  0  0  0  0
   69.4102   31.2909  113.9030 H   0  0  0  0  0  0  0  0  0  0  0  0
   68.7601   34.0966  116.8935 H   0  0  0  0  0  0  0  0  0  0  0  0
   69.6538   34.1863  115.3379 H   0  0  0  0  0  0  0  0  0  0  0  0
   67.8688   33.9851  115.3379 H   0  0  0  0  0  0  0  0  0  0  0  0
   70.8423   31.8821  117.0031 H   0  0  0  0  0  0  0  0  0  0  0  0
   70.7767   30.9830  115.4495 H   0  0  0  0  0  0  0  0  0  0  0  0
   71.0617   32.7566  115.4495 H   0  0  0  0  0  0  0  0  0  0  0  0
  1  2  1  0
  2  3  1  0
  3  4  2  0
  3  5  1  0
  5  6  1  0
  6  7  1  0
  7  8  2  0
  7  9  1  0
  9 10  1  0
 10 11  1  0
 11 12  1  0
 11 13  1  0
  9 14  1  0
 14 15  1  0
 15 16  1  0
 15 17  1  0
 17 18  2  0
  5 19  1  0
 19 20  1  0
 19 21  1  0
 19 22  1  0
  1 23  1  0
  1 24  1  0
  1 25  1  0
  2 26  1  0
  5 27  1  1
  6 28  1  0
  9 29  1  6
 10 30  1  0
 10 31  1  0
 11 32  1  0
 12 33  1  0
 12 34  1  0
 12 35  1  0
 13 36  1  0
 13 37  1  0
 13 38  1  0
 14 39  1  0
 14 40  1  0
 16 41  1  0
 17 42  1  0
 20 43  1  0
 20 44  1  0
 20 45  1  0
 21 46  1  0
 21 47  1  0
 21 48  1  0
 22 49  1  0
 22 50  1  0
 22 51  1  0
M  END
>  <meeko>  (8) 
{"is_sidechain": [false], "free_energy": -5.973, "intermolecular_energy": -9.301, "internal_energy": -0.913}

$$$$
native_redocked
     RDKit          3D

 51 50  0  0  0  0  0  0  0  0999 V2000
   66.0050   28.4710  110.8130 C   0  0  0  0  0  0  0  0  0  0  0  0
   65.9570   29.5220  111.8560 N   0  0  0  0  0  0  0  0  0  0  0  0
   66.6160   29.4570  113.0460 C   0  0  0  0  0  0  0  0  0  0  0  0
   67.3370   28.4980  113.3980 O   0  0  0  0  0  0  0  0  0  0  0  0
   66.3940   30.7190  113.9950 C   0  0  1  0  0  0  0  0  0  0  0  0
   66.0860   30.1730  115.3720 N   0  0  0  0  0  0  0  0  0  0  0  0
   64.8510   30.1550  115.9180 C   0  0  0  0  0  0  0  0  0  0  0  0
   63.8360   30.5970  115.3270 O   0  0  0  0  0  0  0  0  0  0  0  0
   64.7090   29.5570  117.3480 C   0  0  2  0  0  0  0  0  0  0  0  0
   63.5260   30.2200  118.1660 C   0  0  0  0  0  0  0  0  0  0  0  0
   62.2180   29.4300  118.4210 C   0  0  0  0  0  0  0  0  0  0  0  0
   61.0120   30.1720  117.8020 C   0  0  0  0  0  0  0  0  0  0  0  0
   62.2860   28.1060  117.6810 C   0  0  0  0  0  0  0  0  0  0  0  0
   66.0890   29.8390  118.0500 C   0  0  0  0  0  0  0  0  0  0  0  0
   66.1470   31.1350  118.7210 N   0  0  0  0  0  0  0  0  0  0  0  0
   66.3940   32.1590  117.9880 O   0  0  0  0  0  0  0  0  0  0  0  0
   65.9750   31.3080  120.0320 C   0  0  0  0  0  0  0  0  0  0  0  0
   65.6520   32.3320  120.5340 O   0  0  0  0  0  0  0  0  0  0  0  0
   67.6210   31.7690  114.0190 C   0  0  0  0  0  0  0  0  0  0  0  0
   67.1270   33.2660  113.9670 C   0  0  0  0  0  0  0  0  0  0  0  0
   68.4840   31.5860  115.2950 C   0  0  0  0  0  0  0  0  0  0  0  0
   68.6180   31.6070  112.8060 C   0  0  0  0  0  0  0  0  0  0  0  0
   66.0502   27.4815  111.2914 H   0  0  0  0  0  0  0  0  0  0  0  0
   65.1030   28.5346  110.1866 H   0  0  0  0  0  0  0  0  0  0  0  0
   66.8974   28.6165  110.1866 H   0  0  0  0  0  0  0  0  0  0  0  0
   65.4110   30.3220  111.6770 H   0  0  0  0  0  0  0  0  0  0  0  0
   65.5617   31.3202  113.6002 H   0  0  0  0  0  0  0  0  0  0  0  0
   66.8310   29.8080  115.9010 H   0  0  0  0  0  0  0  0  0  0  0  0
   64.4676   28.4849  117.3001 H   0  0  0  0  0  0  0  0  0  0  0  0
   63.9331   30.4858  119.1527 H   0  0  0  0  0  0  0  0  0  0  0  0
   63.1993   31.0428  117.5131 H   0  0  0  0  0  0  0  0  0  0  0  0
   62.1057   29.3080  119.5084 H   0  0  0  0  0  0  0  0  0  0  0  0
   60.3721   30.5657  118.6054 H   0  0  0  0  0  0  0  0  0  0  0  0
   61.3734   31.0042  117.1800 H   0  0  0  0  0  0  0  0  0  0  0  0
   60.4321   29.4743  117.1800 H   0  0  0  0  0  0  0  0  0  0  0  0
   62.3283   27.2815  118.4079 H   0  0  0  0  0  0  0  0  0  0  0  0
   61.3925   27.9926  117.0495 H   0  0  0  0  0  0  0  0  0  0  0  0
   63.1864   28.0847  117.0495 H   0  0  0  0  0  0  0  0  0  0  0  0
   66.2668   29.0517  118.7973 H   0  0  0  0  0  0  0  0  0  0  0  0
   66.8569   29.8476  117.2625 H   0  0  0  0  0  0  0  0  0  0  0  0
   65.6380   32.3280  117.4040 H   0  0  0  0  0  0  0  0  0  0  0  0
   66.1440   30.4435  120.6909 H   0  0  0  0  0  0  0  0  0  0  0  0
   67.0014   33.6465  114.9914 H   0  0  0  0  0  0  0  0  0  0  0  0
   67.8704   33.8792  113.4367 H   0  0  0  0  0  0  0  0  0  0  0  0
   66.1646   33.3163  113.4367 H   0  0  0  0  0  0  0  0  0  0  0  0
   67.8535   31.7197  116.1864 H   0  0  0  0  0  0  0  0  0  0  0  0
   68.9189   30.5757  115.3017 H   0  0  0  0  0  0  0  0  0  0  0  0
   69.2915   32.3329  115.3017 H   0  0  0  0  0  0  0  0  0  0  0  0
   69.6362   31.4416  113.1879 H   0  0  0  0  0  0  0  0  0  0  0  0
   68.3122   30.7468  112.1924 H   0  0  0  0  0  0  0  0  0  0  0  0
   68.6003   32.5198  112.1924 H   0  0  0  0  0  0  0  0  0  0  0  0
  1  2  1  0
  2  3  1  0
  3  4  2  0
  3  5  1  0
  5  6  1  0
  6  7  1  0
  7  8  2  0
  7  9  1  0
  9 10  1  0
 10 11  1  0
 11 12  1  0
 11 13  1  0
  9 14  1  0
 14 15  1  0
 15 16  1  0
 15 17  1  0
 17 18  2  0
  5 19  1  0
 19 20  1  0
 19 21  1  0
 19 22  1  0
  1 23  1  0
  1 24  1  0
  1 25  1  0
  2 26  1  0
  5 27  1  6
  6 28  1  0
  9 29  1  6
 10 30  1  0
 10 31  1  0
 11 32  1  0
 12 33  1  0
 12 34  1  0
 12 35  1  0
 13 36  1  0
 13 37  1  0
 13 38  1  0
 14 39  1  0
 14 40  1  0
 16 41  1  0
 17 42  1  0
 20 43  1  0
 20 44  1  0
 20 45  1  0
 21 46  1  0
 21 47  1  0
 21 48  1  0
 22 49  1  0
 22 50  1  0
 22 51  1  0
M  END
>  <meeko>  (9) 
{"is_sidechain": [false], "free_energy": -5.857, "intermolecular_energy": -9.173, "internal_energy": -0.86}

$$$$
native_redocked
     RDKit          3D

 51 50  0  0  0  0  0  0  0  0999 V2000
   68.3050   32.6250  118.5790 C   0  0  0  0  0  0  0  0  0  0  0  0
   67.2260   32.1130  117.7020 N   0  0  0  0  0  0  0  0  0  0  0  0
   66.9590   30.7930  117.5010 C   0  0  0  0  0  0  0  0  0  0  0  0
   67.5990   29.8580  118.0300 O   0  0  0  0  0  0  0  0  0  0  0  0
   65.7460   30.5070  116.5050 C   0  0  1  0  0  0  0  0  0  0  0  0
   66.3340   29.8060  115.3010 N   0  0  0  0  0  0  0  0  0  0  0  0
   66.7730   30.4440  114.1950 C   0  0  0  0  0  0  0  0  0  0  0  0
   66.7310   31.6920  114.0640 O   0  0  0  0  0  0  0  0  0  0  0  0
   67.3500   29.5690  113.0440 C   0  0  2  0  0  0  0  0  0  0  0  0
   68.5540   30.2730  112.2940 C   0  0  0  0  0  0  0  0  0  0  0  0
   69.5150   29.4380  111.4120 C   0  0  0  0  0  0  0  0  0  0  0  0
   69.4350   27.9420  111.7940 C   0  0  0  0  0  0  0  0  0  0  0  0
   69.0460   29.5000  109.9700 C   0  0  0  0  0  0  0  0  0  0  0  0
   66.1450   29.3430  112.0570 C   0  0  0  0  0  0  0  0  0  0  0  0
   65.6460   27.9700  112.0530 N   0  0  0  0  0  0  0  0  0  0  0  0
   65.1840   27.5150  113.1590 O   0  0  0  0  0  0  0  0  0  0  0  0
   65.6580   27.1720  110.9830 C   0  0  0  0  0  0  0  0  0  0  0  0
   66.0130   27.5060  109.9040 O   0  0  0  0  0  0  0  0  0  0  0  0
   64.5230   29.6770  117.1540 C   0  0  0  0  0  0  0  0  0  0  0  0
   64.7430   28.1180  117.0630 C   0  0  0  0  0  0  0  0  0  0  0  0
   64.3280   30.0530  118.6480 C   0  0  0  0  0  0  0  0  0  0  0  0
   63.1310   29.9530  116.4630 C   0  0  0  0  0  0  0  0  0  0  0  0
   68.0174   32.4886  119.6319 H   0  0  0  0  0  0  0  0  0  0  0  0
   69.2343   32.0718  118.3781 H   0  0  0  0  0  0  0  0  0  0  0  0
   68.4643   33.6947  118.3781 H   0  0  0  0  0  0  0  0  0  0  0  0
   66.6640   32.7710  117.2330 H   0  0  0  0  0  0  0  0  0  0  0  0
   65.2771   31.4631  116.2294 H   0  0  0  0  0  0  0  0  0  0  0  0
   66.4010   28.8240  115.3250 H   0  0  0  0  0  0  0  0  0  0  0  0
   67.7601   28.6275  113.4382 H   0  0  0  0  0  0  0  0  0  0  0  0
   68.1149   31.0433  111.6430 H   0  0  0  0  0  0  0  0  0  0  0  0
   69.1994   30.6124  113.1176 H   0  0  0  0  0  0  0  0  0  0  0  0
   70.5300   29.8389  111.5502 H   0  0  0  0  0  0  0  0  0  0  0  0
   69.4297   27.8431  112.8895 H   0  0  0  0  0  0  0  0  0  0  0  0
   68.5123   27.5072  111.3821 H   0  0  0  0  0  0  0  0  0  0  0  0
   70.3060   27.4113  111.3821 H   0  0  0  0  0  0  0  0  0  0  0  0
   67.9558   29.6441  109.9449 H   0  0  0  0  0  0  0  0  0  0  0  0
   69.5388   30.3408  109.4600 H   0  0  0  0  0  0  0  0  0  0  0  0
   69.3034   28.5600  109.4600 H   0  0  0  0  0  0  0  0  0  0  0  0
   65.3229   30.0116  112.3521 H   0  0  0  0  0  0  0  0  0  0  0  0
   66.5125   29.5572  111.0426 H   0  0  0  0  0  0  0  0  0  0  0  0
   65.8890   27.0540  113.6390 H   0  0  0  0  0  0  0  0  0  0  0  0
   65.3152   26.1348  111.1124 H   0  0  0  0  0  0  0  0  0  0  0  0
   64.8025   27.6963  118.0772 H   0  0  0  0  0  0  0  0  0  0  0  0
   63.9006   27.6597  116.5242 H   0  0  0  0  0  0  0  0  0  0  0  0
   65.6793   27.9107  116.5242 H   0  0  0  0  0  0  0  0  0  0  0  0
   64.7413   29.2560  119.2836 H   0  0  0  0  0  0  0  0  0  0  0  0
   64.8496   30.9981  118.8593 H   0  0  0  0  0  0  0  0  0  0  0  0
   63.2550   30.1712  118.8593 H   0  0  0  0  0  0  0  0  0  0  0  0
   62.3623   30.1054  117.2349 H   0  0  0  0  0  0  0  0  0  0  0  0
   63.2050   30.8540  115.8363 H   0  0  0  0  0  0  0  0  0  0  0  0
   62.8556   29.0920  115.8363 H   0  0  0  0  0  0  0  0  0  0  0  0
  1  2  1  0
  2  3  1  0
  3  4  2  0
  3  5  1  0
  5  6  1  0
  6  7  1  0
  7  8  2  0
  7  9  1  0
  9 10  1  0
 10 11  1  0
 11 12  1  0
 11 13  1  0
  9 14  1  0
 14 15  1  0
 15 16  1  0
 15 17  1  0
 17 18  2  0
  5 19  1  0
 19 20  1  0
 19 21  1  0
 19 22  1  0
  1 23  1  0
  1 24  1  0
  1 25  1  0
  2 26  1  0
  5 27  1  6
  6 28  1  0
  9 29  1  1
 10 30  1  0
 10 31  1  0
 11 32  1  0
 12 33  1  0
 12 34  1  0
 12 35  1  0
 13 36  1  0
 13 37  1  0
 13 38  1  0
 14 39  1  0
 14 40  1  0
 16 41  1  0
 17 42  1  0
 20 43  1  0
 20 44  1  0
 20 45  1  0
 21 46  1  0
 21 47  1  0
 21 48  1  0
 22 49  1  0
 22 50  1  0
 22 51  1  0
M  END
>  <meeko>  (10) 
{"is_sidechain": [false], "free_energy": -5.849, "intermolecular_energy": -9.002, "internal_energy": -1.018}

$$$$
native_redocked
     RDKit          3D

 51 50  0  0  0  0  0  0  0  0999 V2000
   66.0380   28.0510  110.2440 C   0  0  0  0  0  0  0  0  0  0  0  0
   66.2170   29.2060  111.1550 N   0  0  0  0  0  0  0  0  0  0  0  0
   66.8300   29.1400  112.3690 C   0  0  0  0  0  0  0  0  0  0  0  0
   67.3080   28.0940  112.8590 O   0  0  0  0  0  0  0  0  0  0  0  0
   66.8890   30.5260  113.1560 C   0  0  1  0  0  0  0  0  0  0  0  0
   66.4810   30.2290  114.5820 N   0  0  0  0  0  0  0  0  0  0  0  0
   65.2400   30.4410  115.0710 C   0  0  0  0  0  0  0  0  0  0  0  0
   64.3040   30.9110  114.3800 O   0  0  0  0  0  0  0  0  0  0  0  0
   64.9880   30.0810  116.5650 C   0  0  2  0  0  0  0  0  0  0  0  0
   66.2640   29.4540  117.2600 C   0  0  0  0  0  0  0  0  0  0  0  0
   66.9060   30.1540  118.4840 C   0  0  0  0  0  0  0  0  0  0  0  0
   67.8940   31.2490  118.0210 C   0  0  0  0  0  0  0  0  0  0  0  0
   65.8280   30.8970  119.2530 C   0  0  0  0  0  0  0  0  0  0  0  0
   63.8070   29.0410  116.5420 C   0  0  0  0  0  0  0  0  0  0  0  0
   62.5490   29.5760  117.0560 N   0  0  0  0  0  0  0  0  0  0  0  0
   62.2170   30.7540  116.6710 O   0  0  0  0  0  0  0  0  0  0  0  0
   61.7480   28.9260  117.9020 C   0  0  0  0  0  0  0  0  0  0  0  0
   60.6250   29.2310  118.1260 O   0  0  0  0  0  0  0  0  0  0  0  0
   68.3130   31.2840  113.0780 C   0  0  0  0  0  0  0  0  0  0  0  0
   68.8660   31.6660  114.5040 C   0  0  0  0  0  0  0  0  0  0  0  0
   69.3730   30.4030  112.3650 C   0  0  0  0  0  0  0  0  0  0  0  0
   68.2680   32.6350  112.2620 C   0  0  0  0  0  0  0  0  0  0  0  0
   65.8961   27.1352  110.8366 H   0  0  0  0  0  0  0  0  0  0  0  0
   65.1550   28.2178  109.6096 H   0  0  0  0  0  0  0  0  0  0  0  0
   66.9301   27.9427  109.6096 H   0  0  0  0  0  0  0  0  0  0  0  0
   65.8700   30.0790  110.8630 H   0  0  0  0  0  0  0  0  0  0  0  0
   66.2016   31.2385  112.6766 H   0  0  0  0  0  0  0  0  0  0  0  0
   67.1610   29.8590  115.1900 H   0  0  0  0  0  0  0  0  0  0  0  0
   64.7503   30.9825  117.1488 H   0  0  0  0  0  0  0  0  0  0  0  0
   65.9823   28.4418  117.5856 H   0  0  0  0  0  0  0  0  0  0  0  0
   67.0401   29.5405  116.4853 H   0  0  0  0  0  0  0  0  0  0  0  0
   67.4077   29.3828  119.0869 H   0  0  0  0  0  0  0  0  0  0  0  0
   68.3364   31.7394  118.9007 H   0  0  0  0  0  0  0  0  0  0  0  0
   68.6911   30.7918  117.4164 H   0  0  0  0  0  0  0  0  0  0  0  0
   67.3575   31.9951  117.4164 H   0  0  0  0  0  0  0  0  0  0  0  0
   66.0002   30.7783  120.3329 H   0  0  0  0  0  0  0  0  0  0  0  0
   65.8611   31.9650  118.9916 H   0  0  0  0  0  0  0  0  0  0  0  0
   64.8417   30.4860  118.9916 H   0  0  0  0  0  0  0  0  0  0  0  0
   63.6487   28.7170  115.5028 H   0  0  0  0  0  0  0  0  0  0  0  0
   64.0968   28.2080  117.1994 H   0  0  0  0  0  0  0  0  0  0  0  0
   62.0350   30.7430  115.7180 H   0  0  0  0  0  0  0  0  0  0  0  0
   62.1568   28.0495  118.4260 H   0  0  0  0  0  0  0  0  0  0  0  0
   68.2228   31.2217  115.2778 H   0  0  0  0  0  0  0  0  0  0  0  0
   69.8910   31.2825  114.6146 H   0  0  0  0  0  0  0  0  0  0  0  0
   68.8701   32.7604  114.6146 H   0  0  0  0  0  0  0  0  0  0  0  0
   69.9899   29.8903  113.1177 H   0  0  0  0  0  0  0  0  0  0  0  0
   68.8662   29.6564  111.7360 H   0  0  0  0  0  0  0  0  0  0  0  0
   70.0143   31.0378  111.7360 H   0  0  0  0  0  0  0  0  0  0  0  0
   68.2397   33.4844  112.9604 H   0  0  0  0  0  0  0  0  0  0  0  0
   69.1641   32.7108  111.6286 H   0  0  0  0  0  0  0  0  0  0  0  0
   67.3688   32.6510  111.6286 H   0  0  0  0  0  0  0  0  0  0  0  0
  1  2  1  0
  2  3  1  0
  3  4  2  0
  3  5  1  0
  5  6  1  0
  6  7  1  0
  7  8  2  0
  7  9  1  0
  9 10  1  0
 10 11  1  0
 11 12  1  0
 11 13  1  0
  9 14  1  0
 14 15  1  0
 15 16  1  0
 15 17  1  0
 17 18  2  0
  5 19  1  0
 19 20  1  0
 19 21  1  0
 19 22  1  0
  1 23  1  0
  1 24  1  0
  1 25  1  0
  2 26  1  0
  5 27  1  6
  6 28  1  0
  9 29  1  1
 10 30  1  0
 10 31  1  0
 11 32  1  0
 12 33  1  0
 12 34  1  0
 12 35  1  0
 13 36  1  0
 13 37  1  0
 13 38  1  0
 14 39  1  0
 14 40  1  0
 16 41  1  0
 17 42  1  0
 20 43  1  0
 20 44  1  0
 20 45  1  0
 21 46  1  0
 21 47  1  0
 21 48  1  0
 22 49  1  0
 22 50  1  0
 22 51  1  0
M  END
>  <meeko>  (11) 
{"is_sidechain": [false], "free_energy": -5.792, "intermolecular_energy": -8.91, "internal_energy": -1.022}

$$$$
native_redocked
     RDKit          3D

 51 50  0  0  0  0  0  0  0  0999 V2000
   69.4180   34.2830  117.5850 C   0  0  0  0  0  0  0  0  0  0  0  0
   68.5360   33.1870  117.1180 N   0  0  0  0  0  0  0  0  0  0  0  0
   68.8910   32.2560  116.1910 C   0  0  0  0  0  0  0  0  0  0  0  0
   70.0040   32.2200  115.6220 O   0  0  0  0  0  0  0  0  0  0  0  0
   67.7560   31.1850  115.8590 C   0  0  1  0  0  0  0  0  0  0  0  0
   66.7390   31.2780  116.9750 N   0  0  0  0  0  0  0  0  0  0  0  0
   66.3500   30.2290  117.7310 C   0  0  0  0  0  0  0  0  0  0  0  0
   66.8010   29.0680  117.5740 O   0  0  0  0  0  0  0  0  0  0  0  0
   65.2900   30.4980  118.8390 C   0  0  2  0  0  0  0  0  0  0  0  0
   63.8070   30.3970  118.2950 C   0  0  0  0  0  0  0  0  0  0  0  0
   62.9420   29.1540  118.6220 C   0  0  0  0  0  0  0  0  0  0  0  0
   61.4600   29.4230  118.2740 C   0  0  0  0  0  0  0  0  0  0  0  0
   63.3560   28.0080  117.7170 C   0  0  0  0  0  0  0  0  0  0  0  0
   65.5910   31.9560  119.3490 C   0  0  0  0  0  0  0  0  0  0  0  0
   66.6410   32.0140  120.3620 N   0  0  0  0  0  0  0  0  0  0  0  0
   67.8440   32.1680  119.9450 O   0  0  0  0  0  0  0  0  0  0  0  0
   66.4240   31.9030  121.6740 C   0  0  0  0  0  0  0  0  0  0  0  0
   66.4700   30.8830  122.2750 O   0  0  0  0  0  0  0  0  0  0  0  0
   67.0780   31.3510  114.4030 C   0  0  0  0  0  0  0  0  0  0  0  0
   65.5990   30.8070  114.3670 C   0  0  0  0  0  0  0  0  0  0  0  0
   67.0580   32.8410  113.9670 C   0  0  0  0  0  0  0  0  0  0  0  0
   67.8440   30.5840  113.2560 C   0  0  0  0  0  0  0  0  0  0  0  0
   69.4313   34.2996  118.6848 H   0  0  0  0  0  0  0  0  0  0  0  0
   70.4383   34.1183  117.2084 H   0  0  0  0  0  0  0  0  0  0  0  0
   69.0389   35.2445  117.2084 H   0  0  0  0  0  0  0  0  0  0  0  0
   67.6320   33.1290  117.5040 H   0  0  0  0  0  0  0  0  0  0  0  0
   68.2116   30.1852  115.8062 H   0  0  0  0  0  0  0  0  0  0  0  0
   66.3360   32.1560  117.1610 H   0  0  0  0  0  0  0  0  0  0  0  0
   65.3607   29.7447  119.6375 H   0  0  0  0  0  0  0  0  0  0  0  0
   63.2658   31.2714  118.6856 H   0  0  0  0  0  0  0  0  0  0  0  0
   63.9428   30.3294  117.2055 H   0  0  0  0  0  0  0  0  0  0  0  0
   63.0739   28.9251  119.6898 H   0  0  0  0  0  0  0  0  0  0  0  0
   60.8788   29.5285  119.2019 H   0  0  0  0  0  0  0  0  0  0  0  0
   61.3837   30.3497  117.6862 H   0  0  0  0  0  0  0  0  0  0  0  0
   61.0629   28.5823  117.6862 H   0  0  0  0  0  0  0  0  0  0  0  0
   63.6661   27.1496  118.3310 H   0  0  0  0  0  0  0  0  0  0  0  0
   62.5062   27.7168  117.0821 H   0  0  0  0  0  0  0  0  0  0  0  0
   64.1957   28.3271  117.0821 H   0  0  0  0  0  0  0  0  0  0  0  0
   65.9022   32.5681  118.4896 H   0  0  0  0  0  0  0  0  0  0  0  0
   64.6691   32.3316  119.8170 H   0  0  0  0  0  0  0  0  0  0  0  0
   67.9250   31.8060  119.0490 H   0  0  0  0  0  0  0  0  0  0  0  0
   66.1867   32.8192  122.2346 H   0  0  0  0  0  0  0  0  0  0  0  0
   65.2327   30.6723  115.3954 H   0  0  0  0  0  0  0  0  0  0  0  0
   64.9560   31.5275  113.8402 H   0  0  0  0  0  0  0  0  0  0  0  0
   65.5761   29.8416  113.8402 H   0  0  0  0  0  0  0  0  0  0  0  0
   67.0494   33.4841  114.8594 H   0  0  0  0  0  0  0  0  0  0  0  0
   67.9533   33.0593  113.3664 H   0  0  0  0  0  0  0  0  0  0  0  0
   66.1572   33.0352  113.3664 H   0  0  0  0  0  0  0  0  0  0  0  0
   68.5546   29.8725  113.7018 H   0  0  0  0  0  0  0  0  0  0  0  0
   67.1202   30.0378  112.6333 H   0  0  0  0  0  0  0  0  0  0  0  0
   68.3912   31.3071  112.6333 H   0  0  0  0  0  0  0  0  0  0  0  0
  1  2  1  0
  2  3  1  0
  3  4  2  0
  3  5  1  0
  5  6  1  0
  6  7  1  0
  7  8  2  0
  7  9  1  0
  9 10  1  0
 10 11  1  0
 11 12  1  0
 11 13  1  0
  9 14  1  0
 14 15  1  0
 15 16  1  0
 15 17  1  0
 17 18  2  0
  5 19  1  0
 19 20  1  0
 19 21  1  0
 19 22  1  0
  1 23  1  0
  1 24  1  0
  1 25  1  0
  2 26  1  0
  5 27  1  6
  6 28  1  0
  9 29  1  1
 10 30  1  0
 10 31  1  0
 11 32  1  0
 12 33  1  0
 12 34  1  0
 12 35  1  0
 13 36  1  0
 13 37  1  0
 13 38  1  0
 14 39  1  0
 14 40  1  0
 16 41  1  0
 17 42  1  0
 20 43  1  0
 20 44  1  0
 20 45  1  0
 21 46  1  0
 21 47  1  0
 21 48  1  0
 22 49  1  0
 22 50  1  0
 22 51  1  0
M  END
>  <meeko>  (12) 
{"is_sidechain": [false], "free_energy": -5.78, "intermolecular_energy": -8.592, "internal_energy": -1.322}

$$$$
native_redocked
     RDKit          3D

 51 50  0  0  0  0  0  0  0  0999 V2000
   70.8150   33.1910  120.0710 C   0  0  0  0  0  0  0  0  0  0  0  0
   69.8270   32.6400  119.1150 N   0  0  0  0  0  0  0  0  0  0  0  0
   70.1320   31.7870  118.0980 C   0  0  0  0  0  0  0  0  0  0  0  0
   71.2860   31.3740  117.8500 O   0  0  0  0  0  0  0  0  0  0  0  0
   68.8850   31.3450  117.2070 C   0  0  1  0  0  0  0  0  0  0  0  0
   67.6800   31.3490  118.1220 N   0  0  0  0  0  0  0  0  0  0  0  0
   66.8380   30.3040  118.2660 C   0  0  0  0  0  0  0  0  0  0  0  0
   66.9780   29.2220  117.6450 O   0  0  0  0  0  0  0  0  0  0  0  0
   65.6440   30.4760  119.2510 C   0  0  2  0  0  0  0  0  0  0  0  0
   64.2470   30.5200  118.5070 C   0  0  0  0  0  0  0  0  0  0  0  0
   63.5310   29.2020  118.1190 C   0  0  0  0  0  0  0  0  0  0  0  0
   62.0350   29.2700  118.4990 C   0  0  0  0  0  0  0  0  0  0  0  0
   63.5460   29.0550  116.6080 C   0  0  0  0  0  0  0  0  0  0  0  0
   65.9160   31.8380  119.9910 C   0  0  0  0  0  0  0  0  0  0  0  0
   66.6340   31.6810  121.2530 N   0  0  0  0  0  0  0  0  0  0  0  0
   67.8640   32.0450  121.2720 O   0  0  0  0  0  0  0  0  0  0  0  0
   66.0950   31.1770  122.3650 C   0  0  0  0  0  0  0  0  0  0  0  0
   66.7200   30.7390  123.2700 O   0  0  0  0  0  0  0  0  0  0  0  0
   68.6480   32.2420  115.8860 C   0  0  0  0  0  0  0  0  0  0  0  0
   67.5090   31.6600  114.9650 C   0  0  0  0  0  0  0  0  0  0  0  0
   68.2690   33.6990  116.2660 C   0  0  0  0  0  0  0  0  0  0  0  0
   69.9230   32.3630  114.9640 C   0  0  0  0  0  0  0  0  0  0  0  0
   70.4750   33.0014  121.0998 H   0  0  0  0  0  0  0  0  0  0  0  0
   71.7894   32.7060  119.9116 H   0  0  0  0  0  0  0  0  0  0  0  0
   70.9145   34.2748  119.9116 H   0  0  0  0  0  0  0  0  0  0  0  0
   68.8850   32.9080  119.2210 H   0  0  0  0  0  0  0  0  0  0  0  0
   69.0784   30.3441  116.7937 H   0  0  0  0  0  0  0  0  0  0  0  0
   67.5010   32.1630  118.6450 H   0  0  0  0  0  0  0  0  0  0  0  0
   65.5815   29.6216  119.9410 H   0  0  0  0  0  0  0  0  0  0  0  0
   63.5574   31.0750  119.1601 H   0  0  0  0  0  0  0  0  0  0  0  0
   64.4946   30.9678  117.5333 H   0  0  0  0  0  0  0  0  0  0  0  0
   64.0441   28.3770  118.6348 H   0  0  0  0  0  0  0  0  0  0  0  0
   61.9348   29.2746  119.5944 H   0  0  0  0  0  0  0  0  0  0  0  0
   61.5933   30.1891  118.0866 H   0  0  0  0  0  0  0  0  0  0  0  0
   61.5118   28.3947  118.0866 H   0  0  0  0  0  0  0  0  0  0  0  0
   63.6544   27.9927  116.3440 H   0  0  0  0  0  0  0  0  0  0  0  0
   62.6037   29.4417  116.1926 H   0  0  0  0  0  0  0  0  0  0  0  0
   64.3907   29.6241  116.1926 H   0  0  0  0  0  0  0  0  0  0  0  0
   66.5132   32.4814  119.3281 H   0  0  0  0  0  0  0  0  0  0  0  0
   64.9366   32.2791  120.2282 H   0  0  0  0  0  0  0  0  0  0  0  0
   68.3910   31.4300  120.7380 H   0  0  0  0  0  0  0  0  0  0  0  0
   64.9980   31.1680  122.4460 H   0  0  0  0  0  0  0  0  0  0  0  0
   66.7044   31.2489  115.5924 H   0  0  0  0  0  0  0  0  0  0  0  0
   67.1052   32.4623  114.3299 H   0  0  0  0  0  0  0  0  0  0  0  0
   67.9225   30.8627  114.3299 H   0  0  0  0  0  0  0  0  0  0  0  0
   68.2434   33.7974  117.3613 H   0  0  0  0  0  0  0  0  0  0  0  0
   69.0168   34.3920  115.8530 H   0  0  0  0  0  0  0  0  0  0  0  0
   67.2783   33.9398  115.8530 H   0  0  0  0  0  0  0  0  0  0  0  0
   70.8225   32.4484  115.5914 H   0  0  0  0  0  0  0  0  0  0  0  0
   70.0025   31.4684  114.3289 H   0  0  0  0  0  0  0  0  0  0  0  0
   69.8328   33.2566  114.3289 H   0  0  0  0  0  0  0  0  0  0  0  0
  1  2  1  0
  2  3  1  0
  3  4  2  0
  3  5  1  0
  5  6  1  0
  6  7  1  0
  7  8  2  0
  7  9  1  0
  9 10  1  0
 10 11  1  0
 11 12  1  0
 11 13  1  0
  9 14  1  0
 14 15  1  0
 15 16  1  0
 15 17  1  0
 17 18  2  0
  5 19  1  0
 19 20  1  0
 19 21  1  0
 19 22  1  0
  1 23  1  0
  1 24  1  0
  1 25  1  0
  2 26  1  0
  5 27  1  6
  6 28  1  0
  9 29  1  1
 10 30  1  0
 10 31  1  0
 11 32  1  0
 12 33  1  0
 12 34  1  0
 12 35  1  0
 13 36  1  0
 13 37  1  0
 13 38  1  0
 14 39  1  0
 14 40  1  0
 16 41  1  0
 17 42  1  0
 20 43  1  0
 20 44  1  0
 20 45  1  0
 21 46  1  0
 21 47  1  0
 21 48  1  0
 22 49  1  0
 22 50  1  0
 22 51  1  0
M  END
>  <meeko>  (13) 
{"is_sidechain": [false], "free_energy": -5.681, "intermolecular_energy": -8.524, "internal_energy": -1.235}

$$$$
native_redocked
     RDKit          3D

 51 50  0  0  0  0  0  0  0  0999 V2000
   70.7020   33.4110  119.8870 C   0  0  0  0  0  0  0  0  0  0  0  0
   69.3760   32.8540  120.2440 N   0  0  0  0  0  0  0  0  0  0  0  0
   68.4170   33.5320  120.9350 C   0  0  0  0  0  0  0  0  0  0  0  0
   68.5470   34.7030  121.3510 O   0  0  0  0  0  0  0  0  0  0  0  0
   67.0790   32.7040  121.1940 C   0  0  1  0  0  0  0  0  0  0  0  0
   67.1260   31.5090  120.2680 N   0  0  0  0  0  0  0  0  0  0  0  0
   66.1840   31.2360  119.3390 C   0  0  0  0  0  0  0  0  0  0  0  0
   65.1730   31.9570  119.1590 O   0  0  0  0  0  0  0  0  0  0  0  0
   66.3860   29.9630  118.4670 C   0  0  2  0  0  0  0  0  0  0  0  0
   67.4370   30.1850  117.3040 C   0  0  0  0  0  0  0  0  0  0  0  0
   67.5610   31.5700  116.6230 C   0  0  0  0  0  0  0  0  0  0  0  0
   69.0250   32.0640  116.6670 C   0  0  0  0  0  0  0  0  0  0  0  0
   67.2390   31.4280  115.1460 C   0  0  0  0  0  0  0  0  0  0  0  0
   64.9640   29.6460  117.8710 C   0  0  0  0  0  0  0  0  0  0  0  0
   64.9970   28.6950  116.7620 N   0  0  0  0  0  0  0  0  0  0  0  0
   65.5950   27.5790  116.9700 O   0  0  0  0  0  0  0  0  0  0  0  0
   64.4610   28.9240  115.5620 C   0  0  0  0  0  0  0  0  0  0  0  0
   64.9310   28.5540  114.5400 O   0  0  0  0  0  0  0  0  0  0  0  0
   66.8420   32.2720  122.7320 C   0  0  0  0  0  0  0  0  0  0  0  0
   68.1900   31.9080  123.4650 C   0  0  0  0  0  0  0  0  0  0  0  0
   66.1480   33.4100  123.5280 C   0  0  0  0  0  0  0  0  0  0  0  0
   65.9100   31.0090  122.9000 C   0  0  0  0  0  0  0  0  0  0  0  0
   71.2604   33.6456  120.8052 H   0  0  0  0  0  0  0  0  0  0  0  0
   71.2628   32.6724  119.2954 H   0  0  0  0  0  0  0  0  0  0  0  0
   70.5671   34.3285  119.2954 H   0  0  0  0  0  0  0  0  0  0  0  0
   69.1740   31.9320  119.9640 H   0  0  0  0  0  0  0  0  0  0  0  0
   66.2132   33.3483  120.9813 H   0  0  0  0  0  0  0  0  0  0  0  0
   67.8890   30.8930  120.3480 H   0  0  0  0  0  0  0  0  0  0  0  0
   66.7893   29.1366  119.0707 H   0  0  0  0  0  0  0  0  0  0  0  0
   68.4266   29.9472  117.7214 H   0  0  0  0  0  0  0  0  0  0  0  0
   67.0588   29.5406  116.4967 H   0  0  0  0  0  0  0  0  0  0  0  0
   66.8833   32.2616  117.1450 H   0  0  0  0  0  0  0  0  0  0  0  0
   69.3443   32.1717  117.7141 H   0  0  0  0  0  0  0  0  0  0  0  0
   69.6734   31.3349  116.1591 H   0  0  0  0  0  0  0  0  0  0  0  0
   69.0991   33.0369  116.1591 H   0  0  0  0  0  0  0  0  0  0  0  0
   66.2382   30.9866  115.0297 H   0  0  0  0  0  0  0  0  0  0  0  0
   67.2604   32.4190  114.6691 H   0  0  0  0  0  0  0  0  0  0  0  0
   67.9852   30.7755  114.6691 H   0  0  0  0  0  0  0  0  0  0  0  0
   64.3364   29.2265  118.6711 H   0  0  0  0  0  0  0  0  0  0  0  0
   64.5601   30.5901  117.4765 H   0  0  0  0  0  0  0  0  0  0  0  0
   66.5410   27.6790  116.7800 H   0  0  0  0  0  0  0  0  0  0  0  0
   63.5210   29.4937  115.5191 H   0  0  0  0  0  0  0  0  0  0  0  0
   68.0380   31.9490  124.5537 H   0  0  0  0  0  0  0  0  0  0  0  0
   68.5020   30.8934  123.1763 H   0  0  0  0  0  0  0  0  0  0  0  0
   68.9703   32.6276  123.1763 H   0  0  0  0  0  0  0  0  0  0  0  0
   66.2610   33.2248  124.6064 H   0  0  0  0  0  0  0  0  0  0  0  0
   66.6125   34.3734  123.2708 H   0  0  0  0  0  0  0  0  0  0  0  0
   65.0789   33.4381  123.2708 H   0  0  0  0  0  0  0  0  0  0  0  0
   65.7591   30.8045  123.9702 H   0  0  0  0  0  0  0  0  0  0  0  0
   64.9381   31.2045  122.4234 H   0  0  0  0  0  0  0  0  0  0  0  0
   66.3834   30.1380  122.4234 H   0  0  0  0  0  0  0  0  0  0  0  0
  1  2  1  0
  2  3  1  0
  3  4  2  0
  3  5  1  0
  5  6  1  0
  6  7  1  0
  7  8  2  0
  7  9  1  0
  9 10  1  0
 10 11  1  0
 11 12  1  0
 11 13  1  0
  9 14  1  0
 14 15  1  0
 15 16  1  0
 15 17  1  0
 17 18  2  0
  5 19  1  0
 19 20  1  0
 19 21  1  0
 19 22  1  0
  1 23  1  0
  1 24  1  0
  1 25  1  0
  2 26  1  0
  5 27  1  6
  6 28  1  0
  9 29  1  1
 10 30  1  0
 10 31  1  0
 11 32  1  0
 12 33  1  0
 12 34  1  0
 12 35  1  0
 13 36  1  0
 13 37  1  0
 13 38  1  0
 14 39  1  0
 14 40  1  0
 16 41  1  0
 17 42  1  0
 20 43  1  0
 20 44  1  0
 20 45  1  0
 21 46  1  0
 21 47  1  0
 21 48  1  0
 22 49  1  0
 22 50  1  0
 22 51  1  0
M  END
>  <meeko>  (14) 
{"is_sidechain": [false], "free_energy": -5.558, "intermolecular_energy": -8.626, "internal_energy": -0.941}

$$$$
native_redocked
     RDKit          3D

 51 50  0  0  0  0  0  0  0  0999 V2000
   70.2320   32.5380  108.1710 C   0  0  0  0  0  0  0  0  0  0  0  0
   70.3700   31.7550  109.4220 N   0  0  0  0  0  0  0  0  0  0  0  0
   69.7090   30.5930  109.6800 C   0  0  0  0  0  0  0  0  0  0  0  0
   68.9040   30.0520  108.8910 O   0  0  0  0  0  0  0  0  0  0  0  0
   70.0320   29.9500  111.1040 C   0  0  1  0  0  0  0  0  0  0  0  0
   68.6980   29.6580  111.7560 N   0  0  0  0  0  0  0  0  0  0  0  0
   68.0760   30.4990  112.6110 C   0  0  0  0  0  0  0  0  0  0  0  0
   68.5540   31.6100  112.9460 O   0  0  0  0  0  0  0  0  0  0  0  0
   66.7070   30.0430  113.1940 C   0  0  2  0  0  0  0  0  0  0  0  0
   66.5100   30.4920  114.6990 C   0  0  0  0  0  0  0  0  0  0  0  0
   65.8860   29.5150  115.7270 C   0  0  0  0  0  0  0  0  0  0  0  0
   66.5030   29.7400  117.1260 C   0  0  0  0  0  0  0  0  0  0  0  0
   64.4130   29.8400  115.8900 C   0  0  0  0  0  0  0  0  0  0  0  0
   66.7170   28.4730  113.0850 C   0  0  0  0  0  0  0  0  0  0  0  0
   65.6200   27.9370  112.2830 N   0  0  0  0  0  0  0  0  0  0  0  0
   64.4670   27.8740  112.8430 O   0  0  0  0  0  0  0  0  0  0  0  0
   65.7500   27.5050  111.0280 C   0  0  0  0  0  0  0  0  0  0  0  0
   66.7090   27.6850  110.3560 O   0  0  0  0  0  0  0  0  0  0  0  0
   70.9820   28.6450  111.0540 C   0  0  0  0  0  0  0  0  0  0  0  0
   70.1540   27.3040  111.0150 C   0  0  0  0  0  0  0  0  0  0  0  0
   71.9090   28.6810  109.8100 C   0  0  0  0  0  0  0  0  0  0  0  0
   71.9460   28.5160  112.2970 C   0  0  0  0  0  0  0  0  0  0  0  0
   70.0459   33.5937  108.4178 H   0  0  0  0  0  0  0  0  0  0  0  0
   71.1583   32.4566  107.5834 H   0  0  0  0  0  0  0  0  0  0  0  0
   69.3893   32.1448  107.5834 H   0  0  0  0  0  0  0  0  0  0  0  0
   70.9810   32.0990  110.1140 H   0  0  0  0  0  0  0  0  0  0  0  0
   70.6248   30.6652  111.6931 H   0  0  0  0  0  0  0  0  0  0  0  0
   68.2580   28.8040  111.5440 H   0  0  0  0  0  0  0  0  0  0  0  0
   65.8751   30.5028  112.6403 H   0  0  0  0  0  0  0  0  0  0  0  0
   67.5052   30.7619  115.0820 H   0  0  0  0  0  0  0  0  0  0  0  0
   65.7597   31.2931  114.6261 H   0  0  0  0  0  0  0  0  0  0  0  0
   66.0607   28.4908  115.3659 H   0  0  0  0  0  0  0  0  0  0  0  0
   65.7674   29.4717  117.8986 H   0  0  0  0  0  0  0  0  0  0  0  0
   67.3981   29.1104  117.2376 H   0  0  0  0  0  0  0  0  0  0  0  0
   66.7827   30.7980  117.2376 H   0  0  0  0  0  0  0  0  0  0  0  0
   64.1658   29.8945  116.9605 H   0  0  0  0  0  0  0  0  0  0  0  0
   64.1961   30.8076  115.4138 H   0  0  0  0  0  0  0  0  0  0  0  0
   63.8091   29.0535  115.4138 H   0  0  0  0  0  0  0  0  0  0  0  0
   67.6674   28.1620  112.6268 H   0  0  0  0  0  0  0  0  0  0  0  0
   66.5957   28.0774  114.1042 H   0  0  0  0  0  0  0  0  0  0  0  0
   63.7760   27.9770  112.1710 H   0  0  0  0  0  0  0  0  0  0  0  0
   64.9119   26.9448  110.5879 H   0  0  0  0  0  0  0  0  0  0  0  0
   69.9479   26.9703  112.0427 H   0  0  0  0  0  0  0  0  0  0  0  0
   69.2040   27.4749  110.4875 H   0  0  0  0  0  0  0  0  0  0  0  0
   70.7324   26.5312  110.4875 H   0  0  0  0  0  0  0  0  0  0  0  0
   72.9588   28.7218  110.1360 H   0  0  0  0  0  0  0  0  0  0  0  0
   71.7475   27.7759  109.2061 H   0  0  0  0  0  0  0  0  0  0  0  0
   71.6778   29.5708  109.2061 H   0  0  0  0  0  0  0  0  0  0  0  0
   71.3604   28.5944  113.2249 H   0  0  0  0  0  0  0  0  0  0  0  0
   72.4556   27.5417  112.2662 H   0  0  0  0  0  0  0  0  0  0  0  0
   72.6939   29.3221  112.2662 H   0  0  0  0  0  0  0  0  0  0  0  0
  1  2  1  0
  2  3  1  0
  3  4  2  0
  3  5  1  0
  5  6  1  0
  6  7  1  0
  7  8  2  0
  7  9  1  0
  9 10  1  0
 10 11  1  0
 11 12  1  0
 11 13  1  0
  9 14  1  0
 14 15  1  0
 15 16  1  0
 15 17  1  0
 17 18  2  0
  5 19  1  0
 19 20  1  0
 19 21  1  0
 19 22  1  0
  1 23  1  0
  1 24  1  0
  1 25  1  0
  2 26  1  0
  5 27  1  1
  6 28  1  0
  9 29  1  6
 10 30  1  0
 10 31  1  0
 11 32  1  0
 12 33  1  0
 12 34  1  0
 12 35  1  0
 13 36  1  0
 13 37  1  0
 13 38  1  0
 14 39  1  0
 14 40  1  0
 16 41  1  0
 17 42  1  0
 20 43  1  0
 20 44  1  0
 20 45  1  0
 21 46  1  0
 21 47  1  0
 21 48  1  0
 22 49  1  0
 22 50  1  0
 22 51  1  0
M  END
>  <meeko>  (15) 
{"is_sidechain": [false], "free_energy": -5.528, "intermolecular_energy": -8.217, "internal_energy": -1.305}

$$$$
native_redocked
     RDKit          3D

 51 50  0  0  0  0  0  0  0  0999 V2000
   66.6870   34.4770  119.5450 C   0  0  0  0  0  0  0  0  0  0  0  0
   66.9960   33.5820  118.4050 N   0  0  0  0  0  0  0  0  0  0  0  0
   68.0680   32.7430  118.3550 C   0  0  0  0  0  0  0  0  0  0  0  0
   68.9190   32.6350  119.2640 O   0  0  0  0  0  0  0  0  0  0  0  0
   68.1760   31.8880  117.0120 C   0  0  1  0  0  0  0  0  0  0  0  0
   66.7950   31.3330  116.7430 N   0  0  0  0  0  0  0  0  0  0  0  0
   66.3560   30.1420  117.2040 C   0  0  0  0  0  0  0  0  0  0  0  0
   67.0640   29.3780  117.9050 O   0  0  0  0  0  0  0  0  0  0  0  0
   64.9050   29.7210  116.8330 C   0  0  2  0  0  0  0  0  0  0  0  0
   64.6650   29.6880  115.2680 C   0  0  0  0  0  0  0  0  0  0  0  0
   65.7260   29.0570  114.3320 C   0  0  0  0  0  0  0  0  0  0  0  0
   65.0560   28.0720  113.3470 C   0  0  0  0  0  0  0  0  0  0  0  0
   66.3250   30.1430  113.4570 C   0  0  0  0  0  0  0  0  0  0  0  0
   63.9790   30.7990  117.5090 C   0  0  0  0  0  0  0  0  0  0  0  0
   62.5530   30.5410  117.3240 N   0  0  0  0  0  0  0  0  0  0  0  0
   61.9120   31.3450  116.5570 O   0  0  0  0  0  0  0  0  0  0  0  0
   61.8900   29.5420  117.9090 C   0  0  0  0  0  0  0  0  0  0  0  0
   62.2310   29.0100  118.9100 O   0  0  0  0  0  0  0  0  0  0  0  0
   68.7640   32.6970  115.7440 C   0  0  0  0  0  0  0  0  0  0  0  0
   69.6170   31.7750  114.7920 C   0  0  0  0  0  0  0  0  0  0  0  0
   67.6190   33.3300  114.9100 C   0  0  0  0  0  0  0  0  0  0  0  0
   69.7120   33.8950  116.1400 C   0  0  0  0  0  0  0  0  0  0  0  0
   66.8709   33.9443  120.4897 H   0  0  0  0  0  0  0  0  0  0  0  0
   67.3293   35.3686  119.4958 H   0  0  0  0  0  0  0  0  0  0  0  0
   65.6314   34.7824  119.4958 H   0  0  0  0  0  0  0  0  0  0  0  0
   66.3860   33.5940  117.6330 H   0  0  0  0  0  0  0  0  0  0  0  0
   68.9145   31.0858  117.1574 H   0  0  0  0  0  0  0  0  0  0  0  0
   66.1780   31.8740  116.1990 H   0  0  0  0  0  0  0  0  0  0  0  0
   64.6944   28.6996  117.1829 H   0  0  0  0  0  0  0  0  0  0  0  0
   63.7280   29.1361  115.1026 H   0  0  0  0  0  0  0  0  0  0  0  0
   64.6835   30.7517  114.9882 H   0  0  0  0  0  0  0  0  0  0  0  0
   66.4745   28.5548  114.9624 H   0  0  0  0  0  0  0  0  0  0  0  0
   64.5254   27.2919  113.9126 H   0  0  0  0  0  0  0  0  0  0  0  0
   64.3403   28.6167  112.7137 H   0  0  0  0  0  0  0  0  0  0  0  0
   65.8255   27.6064  112.7137 H   0  0  0  0  0  0  0  0  0  0  0  0
   66.7584   30.9289  114.0930 H   0  0  0  0  0  0  0  0  0  0  0  0
   67.1118   29.7098  112.8219 H   0  0  0  0  0  0  0  0  0  0  0  0
   65.5389   30.5774  112.8219 H   0  0  0  0  0  0  0  0  0  0  0  0
   64.1929   30.8144  118.5879 H   0  0  0  0  0  0  0  0  0  0  0  0
   64.1987   31.7627  117.0262 H   0  0  0  0  0  0  0  0  0  0  0  0
   61.3290   31.9060  117.0920 H   0  0  0  0  0  0  0  0  0  0  0  0
   60.9651   29.1892  117.4293 H   0  0  0  0  0  0  0  0  0  0  0  0
   70.2409   31.1007  115.3970 H   0  0  0  0  0  0  0  0  0  0  0  0
   68.9435   31.1805  114.1573 H   0  0  0  0  0  0  0  0  0  0  0  0
   70.2620   32.4004  114.1573 H   0  0  0  0  0  0  0  0  0  0  0  0
   66.8605   33.7493  115.5874 H   0  0  0  0  0  0  0  0  0  0  0  0
   68.0269   34.1308  114.2756 H   0  0  0  0  0  0  0  0  0  0  0  0
   67.1578   32.5587  114.2756 H   0  0  0  0  0  0  0  0  0  0  0  0
   69.7708   33.9693  117.2359 H   0  0  0  0  0  0  0  0  0  0  0  0
   70.7173   33.7180  115.7300 H   0  0  0  0  0  0  0  0  0  0  0  0
   69.3087   34.8327  115.7300 H   0  0  0  0  0  0  0  0  0  0  0  0
  1  2  1  0
  2  3  1  0
  3  4  2  0
  3  5  1  0
  5  6  1  0
  6  7  1  0
  7  8  2  0
  7  9  1  0
  9 10  1  0
 10 11  1  0
 11 12  1  0
 11 13  1  0
  9 14  1  0
 14 15  1  0
 15 16  1  0
 15 17  1  0
 17 18  2  0
  5 19  1  0
 19 20  1  0
 19 21  1  0
 19 22  1  0
  1 23  1  0
  1 24  1  0
  1 25  1  0
  2 26  1  0
  5 27  1  1
  6 28  1  0
  9 29  1  1
 10 30  1  0
 10 31  1  0
 11 32  1  0
 12 33  1  0
 12 34  1  0
 12 35  1  0
 13 36  1  0
 13 37  1  0
 13 38  1  0
 14 39  1  0
 14 40  1  0
 16 41  1  0
 17 42  1  0
 20 43  1  0
 20 44  1  0
 20 45  1  0
 21 46  1  0
 21 47  1  0
 21 48  1  0
 22 49  1  0
 22 50  1  0
 22 51  1  0
M  END
>  <meeko>  (16) 
{"is_sidechain": [false], "free_energy": -5.476, "intermolecular_energy": -8.315, "internal_energy": -1.126}

$$$$
native_redocked
     RDKit          3D

 51 50  0  0  0  0  0  0  0  0999 V2000
   70.3600   32.4330  108.7510 C   0  0  0  0  0  0  0  0  0  0  0  0
   70.6090   31.5610  109.9240 N   0  0  0  0  0  0  0  0  0  0  0  0
   70.2130   30.2620  110.0150 C   0  0  0  0  0  0  0  0  0  0  0  0
   69.5870   29.6540  109.1200 O   0  0  0  0  0  0  0  0  0  0  0  0
   70.6020   29.5460  111.3860 C   0  0  1  0  0  0  0  0  0  0  0  0
   69.3030   29.1180  112.0320 N   0  0  0  0  0  0  0  0  0  0  0  0
   68.3550   29.9760  112.4630 C   0  0  0  0  0  0  0  0  0  0  0  0
   68.4670   31.2230  112.3670 O   0  0  0  0  0  0  0  0  0  0  0  0
   67.0750   29.3670  113.1060 C   0  0  2  0  0  0  0  0  0  0  0  0
   66.0210   28.8920  112.0250 C   0  0  0  0  0  0  0  0  0  0  0  0
   66.4980   28.4270  110.6260 C   0  0  0  0  0  0  0  0  0  0  0  0
   65.8210   27.0910  110.2440 C   0  0  0  0  0  0  0  0  0  0  0  0
   66.0220   29.4210  109.5830 C   0  0  0  0  0  0  0  0  0  0  0  0
   66.4730   30.5200  113.9920 C   0  0  0  0  0  0  0  0  0  0  0  0
   65.2150   30.1600  114.6410 N   0  0  0  0  0  0  0  0  0  0  0  0
   64.1780   30.8440  114.3220 O   0  0  0  0  0  0  0  0  0  0  0  0
   65.0890   29.1840  115.5430 C   0  0  0  0  0  0  0  0  0  0  0  0
   65.9690   28.7980  116.2360 O   0  0  0  0  0  0  0  0  0  0  0  0
   71.6390   28.3180  111.2340 C   0  0  0  0  0  0  0  0  0  0  0  0
   72.6680   28.2540  112.4280 C   0  0  0  0  0  0  0  0  0  0  0  0
   70.8880   26.9620  111.1670 C   0  0  0  0  0  0  0  0  0  0  0  0
   72.5130   28.3840  109.9210 C   0  0  0  0  0  0  0  0  0  0  0  0
   70.0731   33.4376  109.0952 H   0  0  0  0  0  0  0  0  0  0  0  0
   71.2747   32.5008  108.1438 H   0  0  0  0  0  0  0  0  0  0  0  0
   69.5474   32.0076  108.1438 H   0  0  0  0  0  0  0  0  0  0  0  0
   71.0950   31.9480  110.6880 H   0  0  0  0  0  0  0  0  0  0  0  0
   71.1536   30.2584  112.0170 H   0  0  0  0  0  0  0  0  0  0  0  0
   69.1400   28.1530  112.1440 H   0  0  0  0  0  0  0  0  0  0  0  0
   67.3220   28.4671  113.6884 H   0  0  0  0  0  0  0  0  0  0  0  0
   65.4700   28.0494  112.4683 H   0  0  0  0  0  0  0  0  0  0  0  0
   65.4547   29.8092  111.8057 H   0  0  0  0  0  0  0  0  0  0  0  0
   67.5935   28.3331  110.6587 H   0  0  0  0  0  0  0  0  0  0  0  0
   65.5446   26.5455  111.1583 H   0  0  0  0  0  0  0  0  0  0  0  0
   64.9172   27.2944  109.6509 H   0  0  0  0  0  0  0  0  0  0  0  0
   66.5195   26.4824  109.6509 H   0  0  0  0  0  0  0  0  0  0  0  0
   65.5991   30.3041  110.0842 H   0  0  0  0  0  0  0  0  0  0  0  0
   66.8710   29.7276  108.9543 H   0  0  0  0  0  0  0  0  0  0  0  0
   65.2509   28.9518  108.9543 H   0  0  0  0  0  0  0  0  0  0  0  0
   67.2051   30.7787  114.7711 H   0  0  0  0  0  0  0  0  0  0  0  0
   66.2606   31.3658  113.3215 H   0  0  0  0  0  0  0  0  0  0  0  0
   63.7020   31.1040  115.1260 H   0  0  0  0  0  0  0  0  0  0  0  0
   64.1036   28.7069  115.6498 H   0  0  0  0  0  0  0  0  0  0  0  0
   72.1237   28.2879  113.3833 H   0  0  0  0  0  0  0  0  0  0  0  0
   73.2431   27.3183  112.3666 H   0  0  0  0  0  0  0  0  0  0  0  0
   73.3546   29.1112  112.3666 H   0  0  0  0  0  0  0  0  0  0  0  0
   70.6888   26.6024  112.1873 H   0  0  0  0  0  0  0  0  0  0  0  0
   69.9357   27.0963  110.6331 H   0  0  0  0  0  0  0  0  0  0  0  0
   71.5071   26.2260  110.6331 H   0  0  0  0  0  0  0  0  0  0  0  0
   73.5761   28.4643  110.1918 H   0  0  0  0  0  0  0  0  0  0  0  0
   72.3536   27.4713  109.3281 H   0  0  0  0  0  0  0  0  0  0  0  0
   72.2183   29.2624  109.3281 H   0  0  0  0  0  0  0  0  0  0  0  0
  1  2  1  0
  2  3  1  0
  3  4  2  0
  3  5  1  0
  5  6  1  0
  6  7  1  0
  7  8  2  0
  7  9  1  0
  9 10  1  0
 10 11  1  0
 11 12  1  0
 11 13  1  0
  9 14  1  0
 14 15  1  0
 15 16  1  0
 15 17  1  0
 17 18  2  0
  5 19  1  0
 19 20  1  0
 19 21  1  0
 19 22  1  0
  1 23  1  0
  1 24  1  0
  1 25  1  0
  2 26  1  0
  5 27  1  1
  6 28  1  0
  9 29  1  1
 10 30  1  0
 10 31  1  0
 11 32  1  0
 12 33  1  0
 12 34  1  0
 12 35  1  0
 13 36  1  0
 13 37  1  0
 13 38  1  0
 14 39  1  0
 14 40  1  0
 16 41  1  0
 17 42  1  0
 20 43  1  0
 20 44  1  0
 20 45  1  0
 21 46  1  0
 21 47  1  0
 21 48  1  0
 22 49  1  0
 22 50  1  0
 22 51  1  0
M  END
>  <meeko>  (17) 
{"is_sidechain": [false], "free_energy": -5.391, "intermolecular_energy": -8.642, "internal_energy": -0.667}

$$$$
native_redocked
     RDKit          3D

 51 50  0  0  0  0  0  0  0  0999 V2000
   68.8370   31.9880  110.9410 C   0  0  0  0  0  0  0  0  0  0  0  0
   68.3210   31.7880  112.3160 N   0  0  0  0  0  0  0  0  0  0  0  0
   67.8470   32.7850  113.1130 C   0  0  0  0  0  0  0  0  0  0  0  0
   67.7950   33.9880  112.7770 O   0  0  0  0  0  0  0  0  0  0  0  0
   67.3550   32.3040  114.5520 C   0  0  1  0  0  0  0  0  0  0  0  0
   67.1310   30.8120  114.4540 N   0  0  0  0  0  0  0  0  0  0  0  0
   65.9130   30.2360  114.3580 C   0  0  0  0  0  0  0  0  0  0  0  0
   64.8450   30.8940  114.3420 O   0  0  0  0  0  0  0  0  0  0  0  0
   65.8610   28.6830  114.2660 C   0  0  2  0  0  0  0  0  0  0  0  0
   65.4860   28.1740  112.8140 C   0  0  0  0  0  0  0  0  0  0  0  0
   66.4100   28.5000  111.6140 C   0  0  0  0  0  0  0  0  0  0  0  0
   67.8870   28.2280  111.9820 C   0  0  0  0  0  0  0  0  0  0  0  0
   66.1050   27.5420  110.4770 C   0  0  0  0  0  0  0  0  0  0  0  0
   64.7580   28.2480  115.3020 C   0  0  0  0  0  0  0  0  0  0  0  0
   65.2110   28.2990  116.6900 N   0  0  0  0  0  0  0  0  0  0  0  0
   66.3830   27.8390  116.9370 O   0  0  0  0  0  0  0  0  0  0  0  0
   64.4810   28.7760  117.7000 C   0  0  0  0  0  0  0  0  0  0  0  0
   63.4660   28.2940  118.0760 O   0  0  0  0  0  0  0  0  0  0  0  0
   68.3460   32.6920  115.7660 C   0  0  0  0  0  0  0  0  0  0  0  0
   68.1550   34.1830  116.2420 C   0  0  0  0  0  0  0  0  0  0  0  0
   68.1190   31.7600  116.9870 C   0  0  0  0  0  0  0  0  0  0  0  0
   69.8760   32.5510  115.4050 C   0  0  0  0  0  0  0  0  0  0  0  0
   69.8617   32.3852  110.9881 H   0  0  0  0  0  0  0  0  0  0  0  0
   68.8407   31.0262  110.4072 H   0  0  0  0  0  0  0  0  0  0  0  0
   68.1915   32.7011  110.4072 H   0  0  0  0  0  0  0  0  0  0  0  0
   68.3220   30.8720  112.6780 H   0  0  0  0  0  0  0  0  0  0  0  0
   66.4278   32.8369  114.8095 H   0  0  0  0  0  0  0  0  0  0  0  0
   67.9210   30.2250  114.4610 H   0  0  0  0  0  0  0  0  0  0  0  0
   66.8470   28.2467  114.4839 H   0  0  0  0  0  0  0  0  0  0  0  0
   65.4148   27.0778  112.8708 H   0  0  0  0  0  0  0  0  0  0  0  0
   64.5659   28.7304  112.5819 H   0  0  0  0  0  0  0  0  0  0  0  0
   66.2467   29.5531  111.3413 H   0  0  0  0  0  0  0  0  0  0  0  0
   67.9945   28.2082  113.0766 H   0  0  0  0  0  0  0  0  0  0  0  0
   68.1960   27.2579  111.5656 H   0  0  0  0  0  0  0  0  0  0  0  0
   68.5213   29.0244  111.5656 H   0  0  0  0  0  0  0  0  0  0  0  0
   65.7956   26.5703  110.8893 H   0  0  0  0  0  0  0  0  0  0  0  0
   65.2933   27.9532  109.8588 H   0  0  0  0  0  0  0  0  0  0  0  0
   67.0050   27.4082  109.8588 H   0  0  0  0  0  0  0  0  0  0  0  0
   63.8935   28.9193  115.1928 H   0  0  0  0  0  0  0  0  0  0  0  0
   64.5027   27.2007  115.0828 H   0  0  0  0  0  0  0  0  0  0  0  0
   66.3060   27.0110  117.4360 H   0  0  0  0  0  0  0  0  0  0  0  0
   64.8454   29.6757  118.2175 H   0  0  0  0  0  0  0  0  0  0  0  0
   68.1504   34.2192  117.3414 H   0  0  0  0  0  0  0  0  0  0  0  0
   68.9816   34.7991  115.8583 H   0  0  0  0  0  0  0  0  0  0  0  0
   67.1998   34.5709  115.8583 H   0  0  0  0  0  0  0  0  0  0  0  0
   68.2584   32.3323  117.9160 H   0  0  0  0  0  0  0  0  0  0  0  0
   67.0963   31.3563  116.9550 H   0  0  0  0  0  0  0  0  0  0  0  0
   68.8415   30.9312  116.9550 H   0  0  0  0  0  0  0  0  0  0  0  0
   70.4676   32.4965  116.3307 H   0  0  0  0  0  0  0  0  0  0  0  0
   70.0309   31.6348  114.8163 H   0  0  0  0  0  0  0  0  0  0  0  0
   70.1958   33.4235  114.8163 H   0  0  0  0  0  0  0  0  0  0  0  0
  1  2  1  0
  2  3  1  0
  3  4  2  0
  3  5  1  0
  5  6  1  0
  6  7  1  0
  7  8  2  0
  7  9  1  0
  9 10  1  0
 10 11  1  0
 11 12  1  0
 11 13  1  0
  9 14  1  0
 14 15  1  0
 15 16  1  0
 15 17  1  0
 17 18  2  0
  5 19  1  0
 19 20  1  0
 19 21  1  0
 19 22  1  0
  1 23  1  0
  1 24  1  0
  1 25  1  0
  2 26  1  0
  5 27  1  1
  6 28  1  0
  9 29  1  1
 10 30  1  0
 10 31  1  0
 11 32  1  0
 12 33  1  0
 12 34  1  0
 12 35  1  0
 13 36  1  0
 13 37  1  0
 13 38  1  0
 14 39  1  0
 14 40  1  0
 16 41  1  0
 17 42  1  0
 20 43  1  0
 20 44  1  0
 20 45  1  0
 21 46  1  0
 21 47  1  0
 21 48  1  0
 22 49  1  0
 22 50  1  0
 22 51  1  0
M  END
>  <meeko>  (18) 
{"is_sidechain": [false], "free_energy": -5.356, "intermolecular_energy": -8.174, "internal_energy": -1.08}

$$$$
native_redocked
     RDKit          3D

 51 50  0  0  0  0  0  0  0  0999 V2000
   71.6640   28.9470  112.4550 C   0  0  0  0  0  0  0  0  0  0  0  0
   70.2060   29.0960  112.2350 N   0  0  0  0  0  0  0  0  0  0  0  0
   69.4440   28.2290  111.5120 C   0  0  0  0  0  0  0  0  0  0  0  0
   69.8890   27.2070  110.9460 O   0  0  0  0  0  0  0  0  0  0  0  0
   67.9000   28.6210  111.4240 C   0  0  1  0  0  0  0  0  0  0  0  0
   67.4960   29.0930  112.8020 N   0  0  0  0  0  0  0  0  0  0  0  0
   66.2860   28.8610  113.3560 C   0  0  0  0  0  0  0  0  0  0  0  0
   65.3770   28.2260  112.7680 O   0  0  0  0  0  0  0  0  0  0  0  0
   66.0340   29.4190  114.7860 C   0  0  2  0  0  0  0  0  0  0  0  0
   64.6000   29.0380  115.3410 C   0  0  0  0  0  0  0  0  0  0  0  0
   64.1730   29.4820  116.7620 C   0  0  0  0  0  0  0  0  0  0  0  0
   63.0340   30.5230  116.6810 C   0  0  0  0  0  0  0  0  0  0  0  0
   63.5700   28.2960  117.4930 C   0  0  0  0  0  0  0  0  0  0  0  0
   66.1720   30.9810  114.6470 C   0  0  0  0  0  0  0  0  0  0  0  0
   67.2370   31.5470  115.4700 N   0  0  0  0  0  0  0  0  0  0  0  0
   66.9540   31.8010  116.6950 O   0  0  0  0  0  0  0  0  0  0  0  0
   68.4640   31.8240  115.0220 C   0  0  0  0  0  0  0  0  0  0  0  0
   68.9580   31.3160  114.0740 O   0  0  0  0  0  0  0  0  0  0  0  0
   67.5450   29.7050  110.2810 C   0  0  0  0  0  0  0  0  0  0  0  0
   66.1280   29.4530  109.6380 C   0  0  0  0  0  0  0  0  0  0  0  0
   67.5670   31.1460  110.8570 C   0  0  0  0  0  0  0  0  0  0  0  0
   68.5650   29.7150  109.0770 C   0  0  0  0  0  0  0  0  0  0  0  0
   71.8716   28.9258  113.5350 H   0  0  0  0  0  0  0  0  0  0  0  0
   72.0100   28.0088  111.9966 H   0  0  0  0  0  0  0  0  0  0  0  0
   72.1926   29.7958  111.9966 H   0  0  0  0  0  0  0  0  0  0  0  0
   69.7580   29.8750  112.6380 H   0  0  0  0  0  0  0  0  0  0  0  0
   67.3240   27.7368  111.1137 H   0  0  0  0  0  0  0  0  0  0  0  0
   68.1560   29.6000  113.3280 H   0  0  0  0  0  0  0  0  0  0  0  0
   66.7493   28.9901  115.5032 H   0  0  0  0  0  0  0  0  0  0  0  0
   63.8659   29.4647  114.6417 H   0  0  0  0  0  0  0  0  0  0  0  0
   64.6453   27.9420  115.4231 H   0  0  0  0  0  0  0  0  0  0  0  0
   65.0610   29.8897  117.2671 H   0  0  0  0  0  0  0  0  0  0  0  0
   62.7236   30.8067  117.6974 H   0  0  0  0  0  0  0  0  0  0  0  0
   63.3897   31.4147  116.1439 H   0  0  0  0  0  0  0  0  0  0  0  0
   62.1779   30.0887  116.1439 H   0  0  0  0  0  0  0  0  0  0  0  0
   63.6507   28.4547  118.5785 H   0  0  0  0  0  0  0  0  0  0  0  0
   62.5106   28.1940  117.2151 H   0  0  0  0  0  0  0  0  0  0  0  0
   64.1118   27.3799  117.2151 H   0  0  0  0  0  0  0  0  0  0  0  0
   66.3816   31.2197  113.5939 H   0  0  0  0  0  0  0  0  0  0  0  0
   65.2258   31.4216  114.9942 H   0  0  0  0  0  0  0  0  0  0  0  0
   67.7740   31.8660  117.2100 H   0  0  0  0  0  0  0  0  0  0  0  0
   69.0543   32.5733  115.5698 H   0  0  0  0  0  0  0  0  0  0  0  0
   65.3819   29.3203  110.4353 H   0  0  0  0  0  0  0  0  0  0  0  0
   65.8494   30.3157  109.0150 H   0  0  0  0  0  0  0  0  0  0  0  0
   66.1639   28.5471  109.0150 H   0  0  0  0  0  0  0  0  0  0  0  0
   67.5663   31.1016  111.9561 H   0  0  0  0  0  0  0  0  0  0  0  0
   68.4732   31.6652  110.5116 H   0  0  0  0  0  0  0  0  0  0  0  0
   66.6771   31.6926  110.5116 H   0  0  0  0  0  0  0  0  0  0  0  0
   69.5933   29.7251  109.4676 H   0  0  0  0  0  0  0  0  0  0  0  0
   68.4152   28.8153  108.4620 H   0  0  0  0  0  0  0  0  0  0  0  0
   68.3976   30.6115  108.4620 H   0  0  0  0  0  0  0  0  0  0  0  0
  1  2  1  0
  2  3  1  0
  3  4  2  0
  3  5  1  0
  5  6  1  0
  6  7  1  0
  7  8  2  0
  7  9  1  0
  9 10  1  0
 10 11  1  0
 11 12  1  0
 11 13  1  0
  9 14  1  0
 14 15  1  0
 15 16  1  0
 15 17  1  0
 17 18  2  0
  5 19  1  0
 19 20  1  0
 19 21  1  0
 19 22  1  0
  1 23  1  0
  1 24  1  0
  1 25  1  0
  2 26  1  0
  5 27  1  6
  6 28  1  0
  9 29  1  1
 10 30  1  0
 10 31  1  0
 11 32  1  0
 12 33  1  0
 12 34  1  0
 12 35  1  0
 13 36  1  0
 13 37  1  0
 13 38  1  0
 14 39  1  0
 14 40  1  0
 16 41  1  0
 17 42  1  0
 20 43  1  0
 20 44  1  0
 20 45  1  0
 21 46  1  0
 21 47  1  0
 21 48  1  0
 22 49  1  0
 22 50  1  0
 22 51  1  0
M  END
>  <meeko>  (19) 
{"is_sidechain": [false], "free_energy": -5.353, "intermolecular_energy": -7.709, "internal_energy": -1.54}

$$$$
