1GKC_NFH_crystal
 OpenBabel09272609543D

 51 50  0  0  0  0  0  0  0  0999 V2000
   66.2740   30.1870  117.6290 C   0  0  0  0  0  0  0  0  0  0  0  0
   65.3230   29.1400  114.0740 N   0  0  0  0  0  0  0  0  0  0  0  0
   66.8820   29.1800  118.0670 O   0  0  0  0  0  0  0  0  0  0  0  0
   66.4910   31.8470  120.5860 C   0  0  0  0  0  0  0  0  0  0  0  0
   66.4500   31.4280  118.1310 N   0  0  0  0  0  0  0  0  0  0  0  0
   65.4060   32.4680  120.5890 O   0  0  0  0  0  0  0  0  0  0  0  0
   67.0030   31.1960  121.6670 N   0  0  0  0  0  0  0  0  0  0  0  0
   65.2680   30.0260  116.4520 C   0  0  2  0  0  0  0  0  0  0  0  0
   64.0190   29.1340  116.8410 C   0  0  0  0  0  0  0  0  0  0  0  0
   63.0380   29.6080  117.9420 C   0  0  0  0  0  0  0  0  0  0  0  0
   64.8510   27.9580  113.6730 C   0  0  0  0  0  0  0  0  0  0  0  0
   64.2130   27.7930  112.6890 O   0  0  0  0  0  0  0  0  0  0  0  0
   66.0930   29.3440  115.2980 C   0  0  0  0  0  0  0  0  0  0  0  0
   65.0830   30.1770  113.3580 O   0  0  0  0  0  0  0  0  0  0  0  0
   67.3890   31.7540  119.2710 C   0  0  1  0  0  0  0  0  0  0  0  0
   68.2790   33.0670  118.9690 C   0  0  0  0  0  0  0  0  0  0  0  0
   62.2950   30.8850  117.4880 C   0  0  0  0  0  0  0  0  0  0  0  0
   61.9510   28.5640  118.1220 C   0  0  0  0  0  0  0  0  0  0  0  0
   69.2630   33.4070  120.1530 C   0  0  0  0  0  0  0  0  0  0  0  0
   69.1190   32.8830  117.6770 C   0  0  0  0  0  0  0  0  0  0  0  0
   67.4240   34.3730  118.7360 C   0  0  0  0  0  0  0  0  0  0  0  0
   66.3500   31.1370  122.9960 C   0  0  0  0  0  0  0  0  0  0  0  0
   65.9357   32.1658  117.7305 H   0  0  0  0  0  0  0  0  0  0  0  0
   67.8652   30.7333  121.5583 H   0  0  0  0  0  0  0  0  0  0  0  0
   64.8629   30.9744  116.1668 H   0  0  0  0  0  0  0  0  0  0  0  0
   64.4032   28.1868  117.1573 H   0  0  0  0  0  0  0  0  0  0  0  0
   63.4196   29.1525  115.9548 H   0  0  0  0  0  0  0  0  0  0  0  0
   63.6051   29.7767  118.8336 H   0  0  0  0  0  0  0  0  0  0  0  0
   65.0554   27.1334  114.2589 H   0  0  0  0  0  0  0  0  0  0  0  0
   66.9337   29.9654  115.0697 H   0  0  0  0  0  0  0  0  0  0  0  0
   66.3868   28.3772  115.6500 H   0  0  0  0  0  0  0  0  0  0  0  0
   64.5685   29.9188  112.5772 H   0  0  0  0  0  0  0  0  0  0  0  0
   68.1258   30.9901  119.4065 H   0  0  0  0  0  0  0  0  0  0  0  0
   61.7409   30.6774  116.5965 H   0  0  0  0  0  0  0  0  0  0  0  0
   63.0056   31.6610  117.2937 H   0  0  0  0  0  0  0  0  0  0  0  0
   61.6241   31.2006  118.2595 H   0  0  0  0  0  0  0  0  0  0  0  0
   61.4204   28.4392  117.2013 H   0  0  0  0  0  0  0  0  0  0  0  0
   61.2719   28.8840  118.8845 H   0  0  0  0  0  0  0  0  0  0  0  0
   62.3944   27.6329  118.4072 H   0  0  0  0  0  0  0  0  0  0  0  0
   69.8763   32.5557  120.3627 H   0  0  0  0  0  0  0  0  0  0  0  0
   68.6974   33.6625  121.0246 H   0  0  0  0  0  0  0  0  0  0  0  0
   69.8831   34.2336  119.8753 H   0  0  0  0  0  0  0  0  0  0  0  0
   69.7272   32.0075  117.7687 H   0  0  0  0  0  0  0  0  0  0  0  0
   69.7451   33.7388  117.5337 H   0  0  0  0  0  0  0  0  0  0  0  0
   68.4638   32.7759  116.8378 H   0  0  0  0  0  0  0  0  0  0  0  0
   66.8163   34.5597  119.5966 H   0  0  0  0  0  0  0  0  0  0  0  0
   66.7974   34.2409  117.8788 H   0  0  0  0  0  0  0  0  0  0  0  0
   68.0787   35.2038  118.5746 H   0  0  0  0  0  0  0  0  0  0  0  0
   65.4285   31.6799  122.9650 H   0  0  0  0  0  0  0  0  0  0  0  0
   66.9956   31.5718  123.7302 H   0  0  0  0  0  0  0  0  0  0  0  0
   66.1545   30.1167  123.2523 H   0  0  0  0  0  0  0  0  0  0  0  0
  1  3  2  0  0  0  0
  1  5  1  0  0  0  0
  1  8  1  0  0  0  0
  2 11  1  0  0  0  0
  2 13  1  0  0  0  0
  2 14  1  0  0  0  0
  4  6  2  0  0  0  0
  4  7  1  0  0  0  0
  4 15  1  0  0  0  0
  5 23  1  0  0  0  0
  7 22  1  0  0  0  0
  7 24  1  0  0  0  0
  8  9  1  0  0  0  0
  8 13  1  0  0  0  0
  8 25  1  6  0  0  0
  9 10  1  0  0  0  0
  9 26  1  0  0  0  0
  9 27  1  0  0  0  0
 10 17  1  0  0  0  0
 10 18  1  0  0  0  0
 10 28  1  0  0  0  0
 11 12  2  0  0  0  0
 11 29  1  0  0  0  0
 13 30  1  0  0  0  0
 13 31  1  0  0  0  0
 14 32  1  0  0  0  0
 15  5  1  0  0  0  0
 15 16  1  0  0  0  0
 15 33  1  1  0  0  0
 16 19  1  0  0  0  0
 16 20  1  0  0  0  0
 16 21  1  0  0  0  0
 17 34  1  0  0  0  0
 17 35  1  0  0  0  0
 17 36  1  0  0  0  0
 18 37  1  0  0  0  0
 18 38  1  0  0  0  0
 18 39  1  0  0  0  0
 19 40  1  0  0  0  0
 19 41  1  0  0  0  0
 19 42  1  0  0  0  0
 20 43  1  0  0  0  0
 20 44  1  0  0  0  0
 20 45  1  0  0  0  0
 21 46  1  0  0  0  0
 21 47  1  0  0  0  0
 21 48  1  0  0  0  0
 22 49  1  0  0  0  0
 22 50  1  0  0  0  0
 22 51  1  0  0  0  0
M  END
$$$$
