MOL000006_docked
     RDKit          3D

 31 33  0  0  0  0  0  0  0  0999 V2000
   63.4800   27.0680  118.4050 O   0  0  0  0  0  0  0  0  0  0  0  0
   62.9780   28.1050  117.9880 C   0  0  0  0  0  0  0  0  0  0  0  0
   61.6680   28.5720  118.4620 C   0  0  0  0  0  0  0  0  0  0  0  0
   61.1750   29.7220  117.9800 C   0  0  0  0  0  0  0  0  0  0  0  0
   59.8610   30.2410  118.4070 C   0  0  0  0  0  0  0  0  0  0  0  0
   59.0590   29.5370  119.3260 C   0  0  0  0  0  0  0  0  0  0  0  0
   57.8170   30.0410  119.7350 C   0  0  0  0  0  0  0  0  0  0  0  0
   57.3790   31.2550  119.2240 C   0  0  0  0  0  0  0  0  0  0  0  0
   56.1780   31.8000  119.5820 O   0  0  0  0  0  0  0  0  0  0  0  0
   58.1690   31.9620  118.3220 C   0  0  0  0  0  0  0  0  0  0  0  0
   57.7320   33.1570  117.8260 O   0  0  0  0  0  0  0  0  0  0  0  0
   59.4020   31.4710  117.9130 C   0  0  0  0  0  0  0  0  0  0  0  0
   61.8150   30.5100  117.0350 O   0  0  0  0  0  0  0  0  0  0  0  0
   63.0390   30.1060  116.5650 C   0  0  0  0  0  0  0  0  0  0  0  0
   63.6590   30.9220  115.6210 C   0  0  0  0  0  0  0  0  0  0  0  0
   64.9040   30.5580  115.1120 C   0  0  0  0  0  0  0  0  0  0  0  0
   65.4760   31.3850  114.1900 O   0  0  0  0  0  0  0  0  0  0  0  0
   65.5400   29.3930  115.5310 C   0  0  0  0  0  0  0  0  0  0  0  0
   64.9150   28.5810  116.4750 C   0  0  0  0  0  0  0  0  0  0  0  0
   65.5830   27.4480  116.8530 O   0  0  0  0  0  0  0  0  0  0  0  0
   63.6650   28.9360  116.9930 C   0  0  0  0  0  0  0  0  0  0  0  0
   61.1005   27.9872  119.2009 H   0  0  0  0  0  0  0  0  0  0  0  0
   59.4130   28.5766  119.7290 H   0  0  0  0  0  0  0  0  0  0  0  0
   57.1974   29.4819  120.4516 H   0  0  0  0  0  0  0  0  0  0  0  0
   55.4650   31.2430  119.8250 H   0  0  0  0  0  0  0  0  0  0  0  0
   58.0030   33.4390  116.9750 H   0  0  0  0  0  0  0  0  0  0  0  0
   60.0167   32.0448  117.2039 H   0  0  0  0  0  0  0  0  0  0  0  0
   63.1695   31.8463  115.2803 H   0  0  0  0  0  0  0  0  0  0  0  0
   65.0980   32.2240  114.0140 H   0  0  0  0  0  0  0  0  0  0  0  0
   66.5232   29.1170  115.1222 H   0  0  0  0  0  0  0  0  0  0  0  0
   66.1910   27.4780  117.5660 H   0  0  0  0  0  0  0  0  0  0  0  0
  1  2  2  0
  2  3  1  0
  3  4  2  0
  4  5  1  0
  5  6  1  0
  6  7  2  0
  7  8  1  0
  8  9  1  0
  8 10  2  0
 10 11  1  0
 10 12  1  0
  4 13  1  0
 13 14  1  0
 14 15  2  0
 15 16  1  0
 16 17  1  0
 16 18  2  0
 18 19  1  0
 19 20  1  0
 19 21  2  0
 21  2  1  0
 12  5  2  0
 21 14  1  0
  3 22  1  0
  6 23  1  0
  7 24  1  0
  9 25  1  0
 11 26  1  0
 12 27  1  0
 15 28  1  0
 17 29  1  0
 18 30  1  0
 20 31  1  0
M  END
>  <meeko>  (1) 
{"is_sidechain": [false], "free_energy": -9.619, "intermolecular_energy": -11.306, "internal_energy": -0.329}

$$$$
MOL000006_docked
     RDKit          3D

 31 33  0  0  0  0  0  0  0  0999 V2000
   64.3440   27.0110  116.9830 O   0  0  0  0  0  0  0  0  0  0  0  0
   63.9520   28.1010  117.3840 C   0  0  0  0  0  0  0  0  0  0  0  0
   62.5270   28.3690  117.6190 C   0  0  0  0  0  0  0  0  0  0  0  0
   62.1580   29.5760  118.0720 C   0  0  0  0  0  0  0  0  0  0  0  0
   60.7420   29.9110  118.3180 C   0  0  0  0  0  0  0  0  0  0  0  0
   59.8890   29.0300  119.0100 C   0  0  0  0  0  0  0  0  0  0  0  0
   58.5490   29.3600  119.2470 C   0  0  0  0  0  0  0  0  0  0  0  0
   58.0620   30.5780  118.7950 C   0  0  0  0  0  0  0  0  0  0  0  0
   56.7650   30.9590  118.9950 O   0  0  0  0  0  0  0  0  0  0  0  0
   58.9000   31.4600  118.1180 C   0  0  0  0  0  0  0  0  0  0  0  0
   58.4140   32.6590  117.6790 O   0  0  0  0  0  0  0  0  0  0  0  0
   60.2300   31.1420  117.8800 C   0  0  0  0  0  0  0  0  0  0  0  0
   63.0390   30.6170  118.3230 O   0  0  0  0  0  0  0  0  0  0  0  0
   64.3790   30.4070  118.1130 C   0  0  0  0  0  0  0  0  0  0  0  0
   65.2390   31.4710  118.3810 C   0  0  0  0  0  0  0  0  0  0  0  0
   66.6090   31.3100  118.1850 C   0  0  0  0  0  0  0  0  0  0  0  0
   67.4150   32.3760  118.4590 O   0  0  0  0  0  0  0  0  0  0  0  0
   67.1340   30.1050  117.7280 C   0  0  0  0  0  0  0  0  0  0  0  0
   66.2690   29.0460  117.4620 C   0  0  0  0  0  0  0  0  0  0  0  0
   66.8370   27.8830  117.0140 O   0  0  0  0  0  0  0  0  0  0  0  0
   64.8920   29.1950  117.6540 C   0  0  0  0  0  0  0  0  0  0  0  0
   61.7736   27.5910  117.4262 H   0  0  0  0  0  0  0  0  0  0  0  0
   60.2814   28.0675  119.3700 H   0  0  0  0  0  0  0  0  0  0  0  0
   57.8905   28.6621  119.7849 H   0  0  0  0  0  0  0  0  0  0  0  0
   56.1560   30.3620  119.3850 H   0  0  0  0  0  0  0  0  0  0  0  0
   57.6290   32.6890  117.1700 H   0  0  0  0  0  0  0  0  0  0  0  0
   60.8807   31.8528  117.3496 H   0  0  0  0  0  0  0  0  0  0  0  0
   64.8394   32.4294  118.7441 H   0  0  0  0  0  0  0  0  0  0  0  0
   67.2890   32.8700  119.2450 H   0  0  0  0  0  0  0  0  0  0  0  0
   68.2178   29.9902  117.5788 H   0  0  0  0  0  0  0  0  0  0  0  0
   67.2530   27.8570  116.1750 H   0  0  0  0  0  0  0  0  0  0  0  0
  1  2  2  0
  2  3  1  0
  3  4  2  0
  4  5  1  0
  5  6  1  0
  6  7  2  0
  7  8  1  0
  8  9  1  0
  8 10  2  0
 10 11  1  0
 10 12  1  0
  4 13  1  0
 13 14  1  0
 14 15  2  0
 15 16  1  0
 16 17  1  0
 16 18  2  0
 18 19  1  0
 19 20  1  0
 19 21  2  0
 21  2  1  0
 12  5  2  0
 21 14  1  0
  3 22  1  0
  6 23  1  0
  7 24  1  0
  9 25  1  0
 11 26  1  0
 12 27  1  0
 15 28  1  0
 17 29  1  0
 18 30  1  0
 20 31  1  0
M  END
>  <meeko>  (2) 
{"is_sidechain": [false], "free_energy": -9.42, "intermolecular_energy": -11.099, "internal_energy": -0.302}

$$$$
MOL000006_docked
     RDKit          3D

 31 33  0  0  0  0  0  0  0  0999 V2000
   58.1280   28.6070  120.0020 O   0  0  0  0  0  0  0  0  0  0  0  0
   58.7600   29.4070  119.3220 C   0  0  0  0  0  0  0  0  0  0  0  0
   60.0700   29.0680  118.7510 C   0  0  0  0  0  0  0  0  0  0  0  0
   60.7080   29.9800  118.0020 C   0  0  0  0  0  0  0  0  0  0  0  0
   62.0310   29.7060  117.4090 C   0  0  0  0  0  0  0  0  0  0  0  0
   62.7340   30.6950  116.6940 C   0  0  0  0  0  0  0  0  0  0  0  0
   63.9940   30.4290  116.1430 C   0  0  0  0  0  0  0  0  0  0  0  0
   64.5540   29.1700  116.3120 C   0  0  0  0  0  0  0  0  0  0  0  0
   65.7790   28.8480  115.7990 O   0  0  0  0  0  0  0  0  0  0  0  0
   63.8710   28.1890  117.0250 C   0  0  0  0  0  0  0  0  0  0  0  0
   64.4300   26.9540  117.1890 O   0  0  0  0  0  0  0  0  0  0  0  0
   62.6220   28.4450  117.5760 C   0  0  0  0  0  0  0  0  0  0  0  0
   60.2210   31.2510  117.7380 O   0  0  0  0  0  0  0  0  0  0  0  0
   59.0010   31.6060  118.2560 C   0  0  0  0  0  0  0  0  0  0  0  0
   58.5360   32.8880  117.9670 C   0  0  0  0  0  0  0  0  0  0  0  0
   57.3030   33.2990  118.4680 C   0  0  0  0  0  0  0  0  0  0  0  0
   56.8850   34.5610  118.1620 O   0  0  0  0  0  0  0  0  0  0  0  0
   56.5260   32.4510  119.2520 C   0  0  0  0  0  0  0  0  0  0  0  0
   56.9960   31.1710  119.5380 C   0  0  0  0  0  0  0  0  0  0  0  0
   56.1930   30.3780  120.3130 O   0  0  0  0  0  0  0  0  0  0  0  0
   58.2330   30.7470  119.0410 C   0  0  0  0  0  0  0  0  0  0  0  0
   60.5210   28.0817  118.9346 H   0  0  0  0  0  0  0  0  0  0  0  0
   62.2866   31.6918  116.5663 H   0  0  0  0  0  0  0  0  0  0  0  0
   64.5329   31.2078  115.5835 H   0  0  0  0  0  0  0  0  0  0  0  0
   66.5330   29.3510  116.0350 H   0  0  0  0  0  0  0  0  0  0  0  0
   65.2050   26.8550  117.7050 H   0  0  0  0  0  0  0  0  0  0  0  0
   62.0977   27.6608  118.1419 H   0  0  0  0  0  0  0  0  0  0  0  0
   59.1380   33.5697  117.3482 H   0  0  0  0  0  0  0  0  0  0  0  0
   56.7330   35.1830  118.8450 H   0  0  0  0  0  0  0  0  0  0  0  0
   55.5534   32.7871  119.6407 H   0  0  0  0  0  0  0  0  0  0  0  0
   55.7100   30.7520  121.0230 H   0  0  0  0  0  0  0  0  0  0  0  0
  1  2  2  0
  2  3  1  0
  3  4  2  0
  4  5  1  0
  5  6  1  0
  6  7  2  0
  7  8  1  0
  8  9  1  0
  8 10  2  0
 10 11  1  0
 10 12  1  0
  4 13  1  0
 13 14  1  0
 14 15  2  0
 15 16  1  0
 16 17  1  0
 16 18  2  0
 18 19  1  0
 19 20  1  0
 19 21  2  0
 21  2  1  0
 12  5  2  0
 21 14  1  0
  3 22  1  0
  6 23  1  0
  7 24  1  0
  9 25  1  0
 11 26  1  0
 12 27  1  0
 15 28  1  0
 17 29  1  0
 18 30  1  0
 20 31  1  0
M  END
>  <meeko>  (3) 
{"is_sidechain": [false], "free_energy": -9.404, "intermolecular_energy": -11.076, "internal_energy": -0.306}

$$$$
MOL000006_docked
     RDKit          3D

 31 33  0  0  0  0  0  0  0  0999 V2000
   67.9920   31.1140  114.1270 O   0  0  0  0  0  0  0  0  0  0  0  0
   67.0200   30.3670  114.0960 C   0  0  0  0  0  0  0  0  0  0  0  0
   66.0100   30.3700  115.1630 C   0  0  0  0  0  0  0  0  0  0  0  0
   64.9600   29.5410  115.0660 C   0  0  0  0  0  0  0  0  0  0  0  0
   63.9180   29.4880  116.1100 C   0  0  0  0  0  0  0  0  0  0  0  0
   63.8360   28.4090  117.0110 C   0  0  0  0  0  0  0  0  0  0  0  0
   62.8500   28.3710  118.0040 C   0  0  0  0  0  0  0  0  0  0  0  0
   61.9450   29.4190  118.0990 C   0  0  0  0  0  0  0  0  0  0  0  0
   60.9600   29.4420  119.0460 O   0  0  0  0  0  0  0  0  0  0  0  0
   62.0230   30.4940  117.2190 C   0  0  0  0  0  0  0  0  0  0  0  0
   61.1310   31.5240  117.3200 O   0  0  0  0  0  0  0  0  0  0  0  0
   62.9990   30.5410  116.2320 C   0  0  0  0  0  0  0  0  0  0  0  0
   64.7630   28.6510  114.0220 O   0  0  0  0  0  0  0  0  0  0  0  0
   65.6860   28.6170  113.0060 C   0  0  0  0  0  0  0  0  0  0  0  0
   65.4550   27.7160  111.9680 C   0  0  0  0  0  0  0  0  0  0  0  0
   66.3600   27.6420  110.9120 C   0  0  0  0  0  0  0  0  0  0  0  0
   66.0980   26.7470  109.9160 O   0  0  0  0  0  0  0  0  0  0  0  0
   67.4920   28.4520  110.8750 C   0  0  0  0  0  0  0  0  0  0  0  0
   67.7170   29.3500  111.9170 C   0  0  0  0  0  0  0  0  0  0  0  0
   68.8430   30.1240  111.8320 O   0  0  0  0  0  0  0  0  0  0  0  0
   66.8150   29.4340  112.9820 C   0  0  0  0  0  0  0  0  0  0  0  0
   66.1133   31.0417  116.0280 H   0  0  0  0  0  0  0  0  0  0  0  0
   64.5581   27.5829  116.9334 H   0  0  0  0  0  0  0  0  0  0  0  0
   62.7932   27.5213  118.7002 H   0  0  0  0  0  0  0  0  0  0  0  0
   60.3620   28.7230  119.1170 H   0  0  0  0  0  0  0  0  0  0  0  0
   61.4340   32.3900  117.5030 H   0  0  0  0  0  0  0  0  0  0  0  0
   63.0513   31.4010  115.5482 H   0  0  0  0  0  0  0  0  0  0  0  0
   64.5656   27.0689  111.9827 H   0  0  0  0  0  0  0  0  0  0  0  0
   65.2740   26.3010  109.8920 H   0  0  0  0  0  0  0  0  0  0  0  0
   68.1990   28.3841  110.0350 H   0  0  0  0  0  0  0  0  0  0  0  0
   69.6340   29.8480  112.2530 H   0  0  0  0  0  0  0  0  0  0  0  0
  1  2  2  0
  2  3  1  0
  3  4  2  0
  4  5  1  0
  5  6  1  0
  6  7  2  0
  7  8  1  0
  8  9  1  0
  8 10  2  0
 10 11  1  0
 10 12  1  0
  4 13  1  0
 13 14  1  0
 14 15  2  0
 15 16  1  0
 16 17  1  0
 16 18  2  0
 18 19  1  0
 19 20  1  0
 19 21  2  0
 21  2  1  0
 12  5  2  0
 21 14  1  0
  3 22  1  0
  6 23  1  0
  7 24  1  0
  9 25  1  0
 11 26  1  0
 12 27  1  0
 15 28  1  0
 17 29  1  0
 18 30  1  0
 20 31  1  0
M  END
>  <meeko>  (4) 
{"is_sidechain": [false], "free_energy": -8.651, "intermolecular_energy": -10.225, "internal_energy": -0.273}

$$$$
MOL000006_docked
     RDKit          3D

 31 33  0  0  0  0  0  0  0  0999 V2000
   65.1850   29.9690  114.7860 O   0  0  0  0  0  0  0  0  0  0  0  0
   64.7290   30.1830  115.9030 C   0  0  0  0  0  0  0  0  0  0  0  0
   63.3140   29.9400  116.2170 C   0  0  0  0  0  0  0  0  0  0  0  0
   62.8750   30.1790  117.4620 C   0  0  0  0  0  0  0  0  0  0  0  0
   61.4640   29.9660  117.8380 C   0  0  0  0  0  0  0  0  0  0  0  0
   61.0350   28.7570  118.4200 C   0  0  0  0  0  0  0  0  0  0  0  0
   59.6960   28.5660  118.7840 C   0  0  0  0  0  0  0  0  0  0  0  0
   58.7840   29.5900  118.5680 C   0  0  0  0  0  0  0  0  0  0  0  0
   57.4640   29.4670  118.9010 O   0  0  0  0  0  0  0  0  0  0  0  0
   59.2000   30.7920  118.0020 C   0  0  0  0  0  0  0  0  0  0  0  0
   58.2980   31.7960  117.7960 O   0  0  0  0  0  0  0  0  0  0  0  0
   60.5260   30.9900  117.6400 C   0  0  0  0  0  0  0  0  0  0  0  0
   63.6690   30.6650  118.4890 O   0  0  0  0  0  0  0  0  0  0  0  0
   64.9950   30.9070  118.2340 C   0  0  0  0  0  0  0  0  0  0  0  0
   65.7680   31.3900  119.2890 C   0  0  0  0  0  0  0  0  0  0  0  0
   67.1200   31.6520  119.0850 C   0  0  0  0  0  0  0  0  0  0  0  0
   67.8400   32.1230  120.1430 O   0  0  0  0  0  0  0  0  0  0  0  0
   67.7140   31.4390  117.8440 C   0  0  0  0  0  0  0  0  0  0  0  0
   66.9370   30.9570  116.7930 C   0  0  0  0  0  0  0  0  0  0  0  0
   67.5700   30.7650  115.5940 O   0  0  0  0  0  0  0  0  0  0  0  0
   65.5780   30.6910  116.9860 C   0  0  0  0  0  0  0  0  0  0  0  0
   62.6259   29.5681  115.4436 H   0  0  0  0  0  0  0  0  0  0  0  0
   61.7630   27.9503  118.5913 H   0  0  0  0  0  0  0  0  0  0  0  0
   59.3713   27.6168  119.2352 H   0  0  0  0  0  0  0  0  0  0  0  0
   56.9410   30.2330  119.0350 H   0  0  0  0  0  0  0  0  0  0  0  0
   58.0020   32.3160  118.5160 H   0  0  0  0  0  0  0  0  0  0  0  0
   60.8400   31.9476  117.1990 H   0  0  0  0  0  0  0  0  0  0  0  0
   65.3129   31.5628  120.2754 H   0  0  0  0  0  0  0  0  0  0  0  0
   68.6260   32.6110  119.9950 H   0  0  0  0  0  0  0  0  0  0  0  0
   68.7835   31.6487  117.6952 H   0  0  0  0  0  0  0  0  0  0  0  0
   68.2320   31.3660  115.3130 H   0  0  0  0  0  0  0  0  0  0  0  0
  1  2  2  0
  2  3  1  0
  3  4  2  0
  4  5  1  0
  5  6  1  0
  6  7  2  0
  7  8  1  0
  8  9  1  0
  8 10  2  0
 10 11  1  0
 10 12  1  0
  4 13  1  0
 13 14  1  0
 14 15  2  0
 15 16  1  0
 16 17  1  0
 16 18  2  0
 18 19  1  0
 19 20  1  0
 19 21  2  0
 21  2  1  0
 12  5  2  0
 21 14  1  0
  3 22  1  0
  6 23  1  0
  7 24  1  0
  9 25  1  0
 11 26  1  0
 12 27  1  0
 15 28  1  0
 17 29  1  0
 18 30  1  0
 20 31  1  0
M  END
>  <meeko>  (5) 
{"is_sidechain": [false], "free_energy": -8.598, "intermolecular_energy": -10.167, "internal_energy": -0.268}

$$$$
MOL000006_docked
     RDKit          3D

 31 33  0  0  0  0  0  0  0  0999 V2000
   66.6920   31.0640  119.0030 O   0  0  0  0  0  0  0  0  0  0  0  0
   65.8540   30.8140  118.1440 C   0  0  0  0  0  0  0  0  0  0  0  0
   64.4490   30.5540  118.4890 C   0  0  0  0  0  0  0  0  0  0  0  0
   63.5750   30.3000  117.5050 C   0  0  0  0  0  0  0  0  0  0  0  0
   62.1530   30.0210  117.7860 C   0  0  0  0  0  0  0  0  0  0  0  0
   61.7520   28.8360  118.4310 C   0  0  0  0  0  0  0  0  0  0  0  0
   60.4020   28.5830  118.7030 C   0  0  0  0  0  0  0  0  0  0  0  0
   59.4500   29.5220  118.3320 C   0  0  0  0  0  0  0  0  0  0  0  0
   58.1170   29.3350  118.5680 O   0  0  0  0  0  0  0  0  0  0  0  0
   59.8370   30.7010  117.7010 C   0  0  0  0  0  0  0  0  0  0  0  0
   58.8950   31.6210  117.3410 O   0  0  0  0  0  0  0  0  0  0  0  0
   61.1740   30.9600  117.4290 C   0  0  0  0  0  0  0  0  0  0  0  0
   63.9080   30.2470  116.1600 O   0  0  0  0  0  0  0  0  0  0  0  0
   65.2100   30.4820  115.7980 C   0  0  0  0  0  0  0  0  0  0  0  0
   65.5120   30.4270  114.4380 C   0  0  0  0  0  0  0  0  0  0  0  0
   66.8190   30.6580  114.0160 C   0  0  0  0  0  0  0  0  0  0  0  0
   67.0710   30.5950  112.6770 O   0  0  0  0  0  0  0  0  0  0  0  0
   67.8300   30.9440  114.9290 C   0  0  0  0  0  0  0  0  0  0  0  0
   67.5230   30.9970  116.2870 C   0  0  0  0  0  0  0  0  0  0  0  0
   68.5530   31.2830  117.1420 O   0  0  0  0  0  0  0  0  0  0  0  0
   66.2140   30.7670  116.7220 C   0  0  0  0  0  0  0  0  0  0  0  0
   64.1199   30.5677  119.5385 H   0  0  0  0  0  0  0  0  0  0  0  0
   62.5113   28.0968  118.7261 H   0  0  0  0  0  0  0  0  0  0  0  0
   60.0999   27.6517  119.2044 H   0  0  0  0  0  0  0  0  0  0  0  0
   57.5010   30.0010  118.3330 H   0  0  0  0  0  0  0  0  0  0  0  0
   58.2260   31.8690  117.9470 H   0  0  0  0  0  0  0  0  0  0  0  0
   61.4645   31.8989  116.9350 H   0  0  0  0  0  0  0  0  0  0  0  0
   64.7240   30.2029  113.7039 H   0  0  0  0  0  0  0  0  0  0  0  0
   67.7860   31.0800  112.3110 H   0  0  0  0  0  0  0  0  0  0  0  0
   68.8581   31.1258  114.5828 H   0  0  0  0  0  0  0  0  0  0  0  0
   68.4940   31.0380  118.0450 H   0  0  0  0  0  0  0  0  0  0  0  0
  1  2  2  0
  2  3  1  0
  3  4  2  0
  4  5  1  0
  5  6  1  0
  6  7  2  0
  7  8  1  0
  8  9  1  0
  8 10  2  0
 10 11  1  0
 10 12  1  0
  4 13  1  0
 13 14  1  0
 14 15  2  0
 15 16  1  0
 16 17  1  0
 16 18  2  0
 18 19  1  0
 19 20  1  0
 19 21  2  0
 21  2  1  0
 12  5  2  0
 21 14  1  0
  3 22  1  0
  6 23  1  0
  7 24  1  0
  9 25  1  0
 11 26  1  0
 12 27  1  0
 15 28  1  0
 17 29  1  0
 18 30  1  0
 20 31  1  0
M  END
>  <meeko>  (6) 
{"is_sidechain": [false], "free_energy": -8.43, "intermolecular_energy": -9.96, "internal_energy": -0.278}

$$$$
MOL000006_docked
     RDKit          3D

 31 33  0  0  0  0  0  0  0  0999 V2000
   66.7830   30.2450  115.6070 O   0  0  0  0  0  0  0  0  0  0  0  0
   66.0920   30.5350  116.5780 C   0  0  0  0  0  0  0  0  0  0  0  0
   64.6760   30.1540  116.6580 C   0  0  0  0  0  0  0  0  0  0  0  0
   63.9740   30.4870  117.7520 C   0  0  0  0  0  0  0  0  0  0  0  0
   62.5450   30.1430  117.8890 C   0  0  0  0  0  0  0  0  0  0  0  0
   62.1350   28.9450  118.5030 C   0  0  0  0  0  0  0  0  0  0  0  0
   60.7760   28.6310  118.6380 C   0  0  0  0  0  0  0  0  0  0  0  0
   59.8260   29.5220  118.1600 C   0  0  0  0  0  0  0  0  0  0  0  0
   58.4860   29.2740  118.2610 O   0  0  0  0  0  0  0  0  0  0  0  0
   60.2220   30.7130  117.5590 C   0  0  0  0  0  0  0  0  0  0  0  0
   59.2800   31.5860  117.0930 O   0  0  0  0  0  0  0  0  0  0  0  0
   61.5660   31.0330  117.4220 C   0  0  0  0  0  0  0  0  0  0  0  0
   64.4930   31.1920  118.8260 O   0  0  0  0  0  0  0  0  0  0  0  0
   65.8130   31.5680  118.7880 C   0  0  0  0  0  0  0  0  0  0  0  0
   66.3060   32.2710  119.8860 C   0  0  0  0  0  0  0  0  0  0  0  0
   67.6380   32.6750  119.8990 C   0  0  0  0  0  0  0  0  0  0  0  0
   68.0810   33.3600  120.9920 O   0  0  0  0  0  0  0  0  0  0  0  0
   68.4870   32.3890  118.8330 C   0  0  0  0  0  0  0  0  0  0  0  0
   67.9880   31.6870  117.7380 C   0  0  0  0  0  0  0  0  0  0  0  0
   68.8650   31.4320  116.7170 O   0  0  0  0  0  0  0  0  0  0  0  0
   66.6520   31.2760  117.7140 C   0  0  0  0  0  0  0  0  0  0  0  0
   64.1982   29.6041  115.8338 H   0  0  0  0  0  0  0  0  0  0  0  0
   62.8930   28.2442  118.8828 H   0  0  0  0  0  0  0  0  0  0  0  0
   60.4664   27.6903  119.1168 H   0  0  0  0  0  0  0  0  0  0  0  0
   57.8730   29.8290  117.8190 H   0  0  0  0  0  0  0  0  0  0  0  0
   58.5240   31.7800  117.6100 H   0  0  0  0  0  0  0  0  0  0  0  0
   61.8623   31.9809  116.9490 H   0  0  0  0  0  0  0  0  0  0  0  0
   65.6476   32.5047  120.7356 H   0  0  0  0  0  0  0  0  0  0  0  0
   67.5220   33.4660  121.7370 H   0  0  0  0  0  0  0  0  0  0  0  0
   69.5379   32.7131  118.8552 H   0  0  0  0  0  0  0  0  0  0  0  0
   69.5910   30.8570  116.8570 H   0  0  0  0  0  0  0  0  0  0  0  0
  1  2  2  0
  2  3  1  0
  3  4  2  0
  4  5  1  0
  5  6  1  0
  6  7  2  0
  7  8  1  0
  8  9  1  0
  8 10  2  0
 10 11  1  0
 10 12  1  0
  4 13  1  0
 13 14  1  0
 14 15  2  0
 15 16  1  0
 16 17  1  0
 16 18  2  0
 18 19  1  0
 19 20  1  0
 19 21  2  0
 21  2  1  0
 12  5  2  0
 21 14  1  0
  3 22  1  0
  6 23  1  0
  7 24  1  0
  9 25  1  0
 11 26  1  0
 12 27  1  0
 15 28  1  0
 17 29  1  0
 18 30  1  0
 20 31  1  0
M  END
>  <meeko>  (7) 
{"is_sidechain": [false], "free_energy": -8.418, "intermolecular_energy": -9.954, "internal_energy": -0.269}

$$$$
MOL000006_docked
     RDKit          3D

 31 33  0  0  0  0  0  0  0  0999 V2000
   66.0840   30.5220  113.6210 O   0  0  0  0  0  0  0  0  0  0  0  0
   65.7900   30.5610  114.8100 C   0  0  0  0  0  0  0  0  0  0  0  0
   64.4450   30.2100  115.2840 C   0  0  0  0  0  0  0  0  0  0  0  0
   64.1870   30.2580  116.6000 C   0  0  0  0  0  0  0  0  0  0  0  0
   62.8530   29.9280  117.1390 C   0  0  0  0  0  0  0  0  0  0  0  0
   62.5580   28.6400  117.6270 C   0  0  0  0  0  0  0  0  0  0  0  0
   61.2930   28.3380  118.1470 C   0  0  0  0  0  0  0  0  0  0  0  0
   60.3220   29.3290  118.1810 C   0  0  0  0  0  0  0  0  0  0  0  0
   59.0680   29.0970  118.6750 O   0  0  0  0  0  0  0  0  0  0  0  0
   60.6070   30.6070  117.7090 C   0  0  0  0  0  0  0  0  0  0  0  0
   59.6470   31.5770  117.7490 O   0  0  0  0  0  0  0  0  0  0  0  0
   61.8590   30.9150  117.1940 C   0  0  0  0  0  0  0  0  0  0  0  0
   65.1090   30.6390  117.5620 O   0  0  0  0  0  0  0  0  0  0  0  0
   66.3760   30.9770  117.1580 C   0  0  0  0  0  0  0  0  0  0  0  0
   67.2820   31.3500  118.1500 C   0  0  0  0  0  0  0  0  0  0  0  0
   68.5820   31.7020  117.7950 C   0  0  0  0  0  0  0  0  0  0  0  0
   69.4360   32.0600  118.7960 O   0  0  0  0  0  0  0  0  0  0  0  0
   68.9930   31.6870  116.4650 C   0  0  0  0  0  0  0  0  0  0  0  0
   68.0830   31.3140  115.4770 C   0  0  0  0  0  0  0  0  0  0  0  0
   68.5380   31.3160  114.1860 O   0  0  0  0  0  0  0  0  0  0  0  0
   66.7750   30.9590  115.8230 C   0  0  0  0  0  0  0  0  0  0  0  0
   63.6615   29.9125  114.5715 H   0  0  0  0  0  0  0  0  0  0  0  0
   63.3327   27.8596  117.5993 H   0  0  0  0  0  0  0  0  0  0  0  0
   61.0720   27.3284  118.5236 H   0  0  0  0  0  0  0  0  0  0  0  0
   58.9630   28.7180  119.5250 H   0  0  0  0  0  0  0  0  0  0  0  0
   59.0580   31.6850  117.0280 H   0  0  0  0  0  0  0  0  0  0  0  0
   62.0705   31.9312  116.8299 H   0  0  0  0  0  0  0  0  0  0  0  0
   66.9723   31.3662  119.2054 H   0  0  0  0  0  0  0  0  0  0  0  0
   70.1610   31.5080  119.0140 H   0  0  0  0  0  0  0  0  0  0  0  0
   70.0228   31.9659  116.1971 H   0  0  0  0  0  0  0  0  0  0  0  0
   67.9300   31.3620  113.4750 H   0  0  0  0  0  0  0  0  0  0  0  0
  1  2  2  0
  2  3  1  0
  3  4  2  0
  4  5  1  0
  5  6  1  0
  6  7  2  0
  7  8  1  0
  8  9  1  0
  8 10  2  0
 10 11  1  0
 10 12  1  0
  4 13  1  0
 13 14  1  0
 14 15  2  0
 15 16  1  0
 16 17  1  0
 16 18  2  0
 18 19  1  0
 19 20  1  0
 19 21  2  0
 21  2  1  0
 12  5  2  0
 21 14  1  0
  3 22  1  0
  6 23  1  0
  7 24  1  0
  9 25  1  0
 11 26  1  0
 12 27  1  0
 15 28  1  0
 17 29  1  0
 18 30  1  0
 20 31  1  0
M  END
>  <meeko>  (8) 
{"is_sidechain": [false], "free_energy": -8.15, "intermolecular_energy": -9.64, "internal_energy": -0.268}

$$$$
MOL000006_docked
     RDKit          3D

 31 33  0  0  0  0  0  0  0  0999 V2000
   68.2360   31.2110  113.7440 O   0  0  0  0  0  0  0  0  0  0  0  0
   67.2440   30.4910  113.7630 C   0  0  0  0  0  0  0  0  0  0  0  0
   66.2500   30.5750  114.8410 C   0  0  0  0  0  0  0  0  0  0  0  0
   65.1770   29.7710  114.8000 C   0  0  0  0  0  0  0  0  0  0  0  0
   64.1490   29.7990  115.8580 C   0  0  0  0  0  0  0  0  0  0  0  0
   63.2690   30.8900  115.9970 C   0  0  0  0  0  0  0  0  0  0  0  0
   62.2890   30.9040  116.9980 C   0  0  0  0  0  0  0  0  0  0  0  0
   62.1860   29.8210  117.8590 C   0  0  0  0  0  0  0  0  0  0  0  0
   61.2520   29.7740  118.8550 O   0  0  0  0  0  0  0  0  0  0  0  0
   63.0450   28.7340  117.7240 C   0  0  0  0  0  0  0  0  0  0  0  0
   62.9360   27.6700  118.5730 O   0  0  0  0  0  0  0  0  0  0  0  0
   64.0180   28.7110  116.7330 C   0  0  0  0  0  0  0  0  0  0  0  0
   64.9410   28.8360  113.8040 O   0  0  0  0  0  0  0  0  0  0  0  0
   65.8480   28.7260  112.7810 C   0  0  0  0  0  0  0  0  0  0  0  0
   65.5800   27.7800  111.7920 C   0  0  0  0  0  0  0  0  0  0  0  0
   66.4670   27.6280  110.7300 C   0  0  0  0  0  0  0  0  0  0  0  0
   66.1670   26.6920  109.7840 O   0  0  0  0  0  0  0  0  0  0  0  0
   67.6190   28.4040  110.6380 C   0  0  0  0  0  0  0  0  0  0  0  0
   67.8830   29.3470  111.6290 C   0  0  0  0  0  0  0  0  0  0  0  0
   69.0280   30.0840  111.4910 O   0  0  0  0  0  0  0  0  0  0  0  0
   66.9990   29.5090  112.7010 C   0  0  0  0  0  0  0  0  0  0  0  0
   66.3834   31.2864  115.6694 H   0  0  0  0  0  0  0  0  0  0  0  0
   63.3525   31.7442  115.3090 H   0  0  0  0  0  0  0  0  0  0  0  0
   61.6096   31.7630  117.1001 H   0  0  0  0  0  0  0  0  0  0  0  0
   60.9450   28.9460  119.1700 H   0  0  0  0  0  0  0  0  0  0  0  0
   62.4820   26.8970  118.3010 H   0  0  0  0  0  0  0  0  0  0  0  0
   64.6843   27.8413  116.6348 H   0  0  0  0  0  0  0  0  0  0  0  0
   64.6743   27.1585  111.8507 H   0  0  0  0  0  0  0  0  0  0  0  0
   65.5800   25.9910  109.9880 H   0  0  0  0  0  0  0  0  0  0  0  0
   68.3120   28.2743  109.7937 H   0  0  0  0  0  0  0  0  0  0  0  0
   69.7530   29.9350  112.0650 H   0  0  0  0  0  0  0  0  0  0  0  0
  1  2  2  0
  2  3  1  0
  3  4  2  0
  4  5  1  0
  5  6  1  0
  6  7  2  0
  7  8  1  0
  8  9  1  0
  8 10  2  0
 10 11  1  0
 10 12  1  0
  4 13  1  0
 13 14  1  0
 14 15  2  0
 15 16  1  0
 16 17  1  0
 16 18  2  0
 18 19  1  0
 19 20  1  0
 19 21  2  0
 21  2  1  0
 12  5  2  0
 21 14  1  0
  3 22  1  0
  6 23  1  0
  7 24  1  0
  9 25  1  0
 11 26  1  0
 12 27  1  0
 15 28  1  0
 17 29  1  0
 18 30  1  0
 20 31  1  0
M  END
>  <meeko>  (9) 
{"is_sidechain": [false], "free_energy": -7.598, "intermolecular_energy": -8.98, "internal_energy": -0.279}

$$$$
MOL000006_docked
     RDKit          3D

 31 33  0  0  0  0  0  0  0  0999 V2000
   66.1830   27.9770  112.5930 O   0  0  0  0  0  0  0  0  0  0  0  0
   66.0300   28.7710  113.5140 C   0  0  0  0  0  0  0  0  0  0  0  0
   64.9010   28.6600  114.4490 C   0  0  0  0  0  0  0  0  0  0  0  0
   64.7940   29.5500  115.4460 C   0  0  0  0  0  0  0  0  0  0  0  0
   63.6780   29.4990  116.4110 C   0  0  0  0  0  0  0  0  0  0  0  0
   63.5300   28.4220  117.3060 C   0  0  0  0  0  0  0  0  0  0  0  0
   62.4740   28.3870  118.2250 C   0  0  0  0  0  0  0  0  0  0  0  0
   61.5660   29.4360  118.2520 C   0  0  0  0  0  0  0  0  0  0  0  0
   60.5140   29.4610  119.1250 O   0  0  0  0  0  0  0  0  0  0  0  0
   61.7090   30.5100  117.3780 C   0  0  0  0  0  0  0  0  0  0  0  0
   60.8130   31.5400  117.4130 O   0  0  0  0  0  0  0  0  0  0  0  0
   62.7540   30.5530  116.4650 C   0  0  0  0  0  0  0  0  0  0  0  0
   65.6770   30.5980  115.6550 O   0  0  0  0  0  0  0  0  0  0  0  0
   66.7430   30.7370  114.8020 C   0  0  0  0  0  0  0  0  0  0  0  0
   67.6160   31.7970  115.0420 C   0  0  0  0  0  0  0  0  0  0  0  0
   68.7140   31.9830  114.2060 C   0  0  0  0  0  0  0  0  0  0  0  0
   69.5430   33.0310  114.4760 O   0  0  0  0  0  0  0  0  0  0  0  0
   68.9560   31.1270  113.1350 C   0  0  0  0  0  0  0  0  0  0  0  0
   68.0800   30.0690  112.9000 C   0  0  0  0  0  0  0  0  0  0  0  0
   68.3640   29.2580  111.8340 O   0  0  0  0  0  0  0  0  0  0  0  0
   66.9740   29.8730  113.7320 C   0  0  0  0  0  0  0  0  0  0  0  0
   64.1558   27.8594  114.3325 H   0  0  0  0  0  0  0  0  0  0  0  0
   64.2552   27.5953  117.2829 H   0  0  0  0  0  0  0  0  0  0  0  0
   62.3656   27.5387  118.9168 H   0  0  0  0  0  0  0  0  0  0  0  0
   60.2440   30.2720  119.5080 H   0  0  0  0  0  0  0  0  0  0  0  0
   60.1350   31.5940  116.7690 H   0  0  0  0  0  0  0  0  0  0  0  0
   62.8572   31.4118  115.7854 H   0  0  0  0  0  0  0  0  0  0  0  0
   67.4389   32.4810  115.8850 H   0  0  0  0  0  0  0  0  0  0  0  0
   70.2450   33.2380  113.8890 H   0  0  0  0  0  0  0  0  0  0  0  0
   69.8276   31.2838  112.4826 H   0  0  0  0  0  0  0  0  0  0  0  0
   67.6810   28.7610  111.4290 H   0  0  0  0  0  0  0  0  0  0  0  0
  1  2  2  0
  2  3  1  0
  3  4  2  0
  4  5  1  0
  5  6  1  0
  6  7  2  0
  7  8  1  0
  8  9  1  0
  8 10  2  0
 10 11  1  0
 10 12  1  0
  4 13  1  0
 13 14  1  0
 14 15  2  0
 15 16  1  0
 16 17  1  0
 16 18  2  0
 18 19  1  0
 19 20  1  0
 19 21  2  0
 21  2  1  0
 12  5  2  0
 21 14  1  0
  3 22  1  0
  6 23  1  0
  7 24  1  0
  9 25  1  0
 11 26  1  0
 12 27  1  0
 15 28  1  0
 17 29  1  0
 18 30  1  0
 20 31  1  0
M  END
>  <meeko>  (10) 
{"is_sidechain": [false], "free_energy": -7.38, "intermolecular_energy": -8.722, "internal_energy": -0.281}

$$$$
MOL000006_docked
     RDKit          3D

 31 33  0  0  0  0  0  0  0  0999 V2000
   65.0200   27.1690  117.3080 O   0  0  0  0  0  0  0  0  0  0  0  0
   64.8350   28.2190  116.7050 C   0  0  0  0  0  0  0  0  0  0  0  0
   65.7700   28.6920  115.6750 C   0  0  0  0  0  0  0  0  0  0  0  0
   65.5070   29.8430  115.0380 C   0  0  0  0  0  0  0  0  0  0  0  0
   66.4120   30.3770  114.0010 C   0  0  0  0  0  0  0  0  0  0  0  0
   67.0820   31.6040  114.1740 C   0  0  0  0  0  0  0  0  0  0  0  0
   67.9470   32.0990  113.1890 C   0  0  0  0  0  0  0  0  0  0  0  0
   68.1440   31.3620  112.0300 C   0  0  0  0  0  0  0  0  0  0  0  0
   68.9740   31.7900  111.0330 O   0  0  0  0  0  0  0  0  0  0  0  0
   67.4930   30.1440  111.8540 C   0  0  0  0  0  0  0  0  0  0  0  0
   67.6960   29.4230  110.7120 O   0  0  0  0  0  0  0  0  0  0  0  0
   66.6360   29.6450  112.8260 C   0  0  0  0  0  0  0  0  0  0  0  0
   64.4060   30.6440  115.2970 O   0  0  0  0  0  0  0  0  0  0  0  0
   63.5110   30.2370  116.2540 C   0  0  0  0  0  0  0  0  0  0  0  0
   62.4110   31.0620  116.4870 C   0  0  0  0  0  0  0  0  0  0  0  0
   61.4710   30.6960  117.4480 C   0  0  0  0  0  0  0  0  0  0  0  0
   60.4100   31.5300  117.6440 O   0  0  0  0  0  0  0  0  0  0  0  0
   61.6110   29.5200  118.1790 C   0  0  0  0  0  0  0  0  0  0  0  0
   62.7130   28.7000  117.9430 C   0  0  0  0  0  0  0  0  0  0  0  0
   62.8020   27.5560  118.6890 O   0  0  0  0  0  0  0  0  0  0  0  0
   63.6630   29.0580  116.9800 C   0  0  0  0  0  0  0  0  0  0  0  0
   66.6716   28.1114  115.4300 H   0  0  0  0  0  0  0  0  0  0  0  0
   66.9238   32.1823  115.0963 H   0  0  0  0  0  0  0  0  0  0  0  0
   68.4633   33.0596  113.3328 H   0  0  0  0  0  0  0  0  0  0  0  0
   69.8670   31.5050  111.0110 H   0  0  0  0  0  0  0  0  0  0  0  0
   67.4080   28.5330  110.6630 H   0  0  0  0  0  0  0  0  0  0  0  0
   66.1341   28.6780  112.6747 H   0  0  0  0  0  0  0  0  0  0  0  0
   62.2865   31.9943  115.9166 H   0  0  0  0  0  0  0  0  0  0  0  0
   59.7820   31.3400  118.3130 H   0  0  0  0  0  0  0  0  0  0  0  0
   60.8610   29.2411  118.9338 H   0  0  0  0  0  0  0  0  0  0  0  0
   63.5270   26.9750  118.5700 H   0  0  0  0  0  0  0  0  0  0  0  0
  1  2  2  0
  2  3  1  0
  3  4  2  0
  4  5  1  0
  5  6  1  0
  6  7  2  0
  7  8  1  0
  8  9  1  0
  8 10  2  0
 10 11  1  0
 10 12  1  0
  4 13  1  0
 13 14  1  0
 14 15  2  0
 15 16  1  0
 16 17  1  0
 16 18  2  0
 18 19  1  0
 19 20  1  0
 19 21  2  0
 21  2  1  0
 12  5  2  0
 21 14  1  0
  3 22  1  0
  6 23  1  0
  7 24  1  0
  9 25  1  0
 11 26  1  0
 12 27  1  0
 15 28  1  0
 17 29  1  0
 18 30  1  0
 20 31  1  0
M  END
>  <meeko>  (11) 
{"is_sidechain": [false], "free_energy": -7.339, "intermolecular_energy": -8.681, "internal_energy": -0.274}

$$$$
MOL000006_docked
     RDKit          3D

 31 33  0  0  0  0  0  0  0  0999 V2000
   67.0050   28.6330  117.1870 O   0  0  0  0  0  0  0  0  0  0  0  0
   66.2540   29.4250  117.7450 C   0  0  0  0  0  0  0  0  0  0  0  0
   66.7570   30.6600  118.3630 C   0  0  0  0  0  0  0  0  0  0  0  0
   65.8860   31.4960  118.9470 C   0  0  0  0  0  0  0  0  0  0  0  0
   66.3280   32.7450  119.5950 C   0  0  0  0  0  0  0  0  0  0  0  0
   66.7700   33.8470  118.8380 C   0  0  0  0  0  0  0  0  0  0  0  0
   67.1790   35.0340  119.4610 C   0  0  0  0  0  0  0  0  0  0  0  0
   67.1410   35.1190  120.8450 C   0  0  0  0  0  0  0  0  0  0  0  0
   67.5260   36.2470  121.5130 O   0  0  0  0  0  0  0  0  0  0  0  0
   66.6970   34.0380  121.6020 C   0  0  0  0  0  0  0  0  0  0  0  0
   66.6590   34.1300  122.9640 O   0  0  0  0  0  0  0  0  0  0  0  0
   66.2880   32.8590  120.9930 C   0  0  0  0  0  0  0  0  0  0  0  0
   64.5200   31.2680  119.0270 O   0  0  0  0  0  0  0  0  0  0  0  0
   64.0120   30.1250  118.4630 C   0  0  0  0  0  0  0  0  0  0  0  0
   62.6350   29.9270  118.5550 C   0  0  0  0  0  0  0  0  0  0  0  0
   62.0680   28.7840  117.9990 C   0  0  0  0  0  0  0  0  0  0  0  0
   60.7170   28.6300  118.1110 O   0  0  0  0  0  0  0  0  0  0  0  0
   62.8530   27.8330  117.3520 C   0  0  0  0  0  0  0  0  0  0  0  0
   64.2280   28.0350  117.2630 C   0  0  0  0  0  0  0  0  0  0  0  0
   64.9530   27.0710  116.6170 O   0  0  0  0  0  0  0  0  0  0  0  0
   64.8090   29.1800  117.8180 C   0  0  0  0  0  0  0  0  0  0  0  0
   67.8315   30.8950  118.3468 H   0  0  0  0  0  0  0  0  0  0  0  0
   66.7947   33.7751  117.7406 H   0  0  0  0  0  0  0  0  0  0  0  0
   67.5258   35.8875  118.8600 H   0  0  0  0  0  0  0  0  0  0  0  0
   67.8800   36.1820  122.3780 H   0  0  0  0  0  0  0  0  0  0  0  0
   66.4120   33.3870  123.4780 H   0  0  0  0  0  0  0  0  0  0  0  0
   65.9335   32.0165  121.6050 H   0  0  0  0  0  0  0  0  0  0  0  0
   62.0013   30.6687  119.0633 H   0  0  0  0  0  0  0  0  0  0  0  0
   60.2920   27.9050  117.6960 H   0  0  0  0  0  0  0  0  0  0  0  0
   62.3928   26.9337  116.9168 H   0  0  0  0  0  0  0  0  0  0  0  0
   64.5950   26.6390  115.8660 H   0  0  0  0  0  0  0  0  0  0  0  0
  1  2  2  0
  2  3  1  0
  3  4  2  0
  4  5  1  0
  5  6  1  0
  6  7  2  0
  7  8  1  0
  8  9  1  0
  8 10  2  0
 10 11  1  0
 10 12  1  0
  4 13  1  0
 13 14  1  0
 14 15  2  0
 15 16  1  0
 16 17  1  0
 16 18  2  0
 18 19  1  0
 19 20  1  0
 19 21  2  0
 21  2  1  0
 12  5  2  0
 21 14  1  0
  3 22  1  0
  6 23  1  0
  7 24  1  0
  9 25  1  0
 11 26  1  0
 12 27  1  0
 15 28  1  0
 17 29  1  0
 18 30  1  0
 20 31  1  0
M  END
>  <meeko>  (12) 
{"is_sidechain": [false], "free_energy": -7.332, "intermolecular_energy": -8.67, "internal_energy": -0.278}

$$$$
MOL000006_docked
     RDKit          3D

 31 33  0  0  0  0  0  0  0  0999 V2000
   65.6560   27.1190  111.2210 O   0  0  0  0  0  0  0  0  0  0  0  0
   66.5760   27.8840  111.4860 C   0  0  0  0  0  0  0  0  0  0  0  0
   67.7960   27.9350  110.6700 C   0  0  0  0  0  0  0  0  0  0  0  0
   68.7630   28.8040  111.0010 C   0  0  0  0  0  0  0  0  0  0  0  0
   70.0170   28.8970  110.2290 C   0  0  0  0  0  0  0  0  0  0  0  0
   71.1620   28.1650  110.5990 C   0  0  0  0  0  0  0  0  0  0  0  0
   72.3460   28.2510  109.8540 C   0  0  0  0  0  0  0  0  0  0  0  0
   72.3810   29.0680  108.7330 C   0  0  0  0  0  0  0  0  0  0  0  0
   73.5050   29.1960  107.9650 O   0  0  0  0  0  0  0  0  0  0  0  0
   71.2520   29.7880  108.3540 C   0  0  0  0  0  0  0  0  0  0  0  0
   71.2940   30.5880  107.2480 O   0  0  0  0  0  0  0  0  0  0  0  0
   70.0740   29.7080  109.0860 C   0  0  0  0  0  0  0  0  0  0  0  0
   68.7020   29.6620  112.0880 O   0  0  0  0  0  0  0  0  0  0  0  0
   67.5790   29.6430  112.8760 C   0  0  0  0  0  0  0  0  0  0  0  0
   67.5460   30.5210  113.9580 C   0  0  0  0  0  0  0  0  0  0  0  0
   66.4290   30.5430  114.7900 C   0  0  0  0  0  0  0  0  0  0  0  0
   66.4370   31.4170  115.8360 O   0  0  0  0  0  0  0  0  0  0  0  0
   65.3440   29.7010  114.5590 C   0  0  0  0  0  0  0  0  0  0  0  0
   65.3830   28.8250  113.4770 C   0  0  0  0  0  0  0  0  0  0  0  0
   64.2910   28.0200  113.2950 O   0  0  0  0  0  0  0  0  0  0  0  0
   66.4990   28.7950  112.6350 C   0  0  0  0  0  0  0  0  0  0  0  0
   67.9150   27.2711  109.8011 H   0  0  0  0  0  0  0  0  0  0  0  0
   71.1264   27.5158  111.4863 H   0  0  0  0  0  0  0  0  0  0  0  0
   73.2359   27.6783  110.1540 H   0  0  0  0  0  0  0  0  0  0  0  0
   74.3410   28.9580  108.3150 H   0  0  0  0  0  0  0  0  0  0  0  0
   70.5570   31.1220  107.0270 H   0  0  0  0  0  0  0  0  0  0  0  0
   69.1885   30.2790  108.7701 H   0  0  0  0  0  0  0  0  0  0  0  0
   68.3957   31.1916  114.1535 H   0  0  0  0  0  0  0  0  0  0  0  0
   66.2030   31.1230  116.6950 H   0  0  0  0  0  0  0  0  0  0  0  0
   64.4673   29.7275  115.2228 H   0  0  0  0  0  0  0  0  0  0  0  0
   63.9530   27.8760  112.4330 H   0  0  0  0  0  0  0  0  0  0  0  0
  1  2  2  0
  2  3  1  0
  3  4  2  0
  4  5  1  0
  5  6  1  0
  6  7  2  0
  7  8  1  0
  8  9  1  0
  8 10  2  0
 10 11  1  0
 10 12  1  0
  4 13  1  0
 13 14  1  0
 14 15  2  0
 15 16  1  0
 16 17  1  0
 16 18  2  0
 18 19  1  0
 19 20  1  0
 19 21  2  0
 21  2  1  0
 12  5  2  0
 21 14  1  0
  3 22  1  0
  6 23  1  0
  7 24  1  0
  9 25  1  0
 11 26  1  0
 12 27  1  0
 15 28  1  0
 17 29  1  0
 18 30  1  0
 20 31  1  0
M  END
>  <meeko>  (13) 
{"is_sidechain": [false], "free_energy": -6.949, "intermolecular_energy": -8.229, "internal_energy": -0.268}

$$$$
MOL000006_docked
     RDKit          3D

 31 33  0  0  0  0  0  0  0  0999 V2000
   66.7920   34.9410  120.0010 O   0  0  0  0  0  0  0  0  0  0  0  0
   66.5030   33.7890  120.3000 C   0  0  0  0  0  0  0  0  0  0  0  0
   66.2580   32.7640  119.2760 C   0  0  0  0  0  0  0  0  0  0  0  0
   65.9590   31.5160  119.6640 C   0  0  0  0  0  0  0  0  0  0  0  0
   65.6910   30.4440  118.6860 C   0  0  0  0  0  0  0  0  0  0  0  0
   66.7210   29.9010  117.8940 C   0  0  0  0  0  0  0  0  0  0  0  0
   66.4610   28.8770  116.9740 C   0  0  0  0  0  0  0  0  0  0  0  0
   65.1660   28.3920  116.8500 C   0  0  0  0  0  0  0  0  0  0  0  0
   64.8470   27.3950  115.9720 O   0  0  0  0  0  0  0  0  0  0  0  0
   64.1430   28.9160  117.6350 C   0  0  0  0  0  0  0  0  0  0  0  0
   62.8730   28.4320  117.5100 O   0  0  0  0  0  0  0  0  0  0  0  0
   64.3930   29.9310  118.5510 C   0  0  0  0  0  0  0  0  0  0  0  0
   65.8430   31.1170  120.9870 O   0  0  0  0  0  0  0  0  0  0  0  0
   66.0620   32.0460  121.9730 C   0  0  0  0  0  0  0  0  0  0  0  0
   65.9440   31.6130  123.2930 C   0  0  0  0  0  0  0  0  0  0  0  0
   66.1570   32.5150  124.3320 C   0  0  0  0  0  0  0  0  0  0  0  0
   66.0320   32.0500  125.6090 O   0  0  0  0  0  0  0  0  0  0  0  0
   66.4860   33.8430  124.0760 C   0  0  0  0  0  0  0  0  0  0  0  0
   66.6010   34.2710  122.7550 C   0  0  0  0  0  0  0  0  0  0  0  0
   66.9260   35.5860  122.5580 O   0  0  0  0  0  0  0  0  0  0  0  0
   66.3900   33.3740  121.7030 C   0  0  0  0  0  0  0  0  0  0  0  0
   66.3190   33.0168  118.2072 H   0  0  0  0  0  0  0  0  0  0  0  0
   67.7457   30.2869  117.9994 H   0  0  0  0  0  0  0  0  0  0  0  0
   67.2725   28.4625  116.3578 H   0  0  0  0  0  0  0  0  0  0  0  0
   64.2870   26.6940  116.2430 H   0  0  0  0  0  0  0  0  0  0  0  0
   62.6980   27.5260  117.6700 H   0  0  0  0  0  0  0  0  0  0  0  0
   63.5750   30.3307  119.1683 H   0  0  0  0  0  0  0  0  0  0  0  0
   65.6846   30.5667  123.5119 H   0  0  0  0  0  0  0  0  0  0  0  0
   66.7200   31.5410  125.9920 H   0  0  0  0  0  0  0  0  0  0  0  0
   66.6531   34.5455  124.9058 H   0  0  0  0  0  0  0  0  0  0  0  0
   66.7730   35.9870  121.7250 H   0  0  0  0  0  0  0  0  0  0  0  0
  1  2  2  0
  2  3  1  0
  3  4  2  0
  4  5  1  0
  5  6  1  0
  6  7  2  0
  7  8  1  0
  8  9  1  0
  8 10  2  0
 10 11  1  0
 10 12  1  0
  4 13  1  0
 13 14  1  0
 14 15  2  0
 15 16  1  0
 16 17  1  0
 16 18  2  0
 18 19  1  0
 19 20  1  0
 19 21  2  0
 21  2  1  0
 12  5  2  0
 21 14  1  0
  3 22  1  0
  6 23  1  0
  7 24  1  0
  9 25  1  0
 11 26  1  0
 12 27  1  0
 15 28  1  0
 17 29  1  0
 18 30  1  0
 20 31  1  0
M  END
>  <meeko>  (14) 
{"is_sidechain": [false], "free_energy": -6.943, "intermolecular_energy": -8.21, "internal_energy": -0.279}

$$$$
MOL000006_docked
     RDKit          3D

 31 33  0  0  0  0  0  0  0  0999 V2000
   68.7570   31.7030  111.9950 O   0  0  0  0  0  0  0  0  0  0  0  0
   67.9500   30.9860  112.5760 C   0  0  0  0  0  0  0  0  0  0  0  0
   67.5810   31.2200  113.9780 C   0  0  0  0  0  0  0  0  0  0  0  0
   66.6820   30.4100  114.5580 C   0  0  0  0  0  0  0  0  0  0  0  0
   66.2760   30.5860  115.9650 C   0  0  0  0  0  0  0  0  0  0  0  0
   64.9810   30.2480  116.4040 C   0  0  0  0  0  0  0  0  0  0  0  0
   64.6080   30.4080  117.7440 C   0  0  0  0  0  0  0  0  0  0  0  0
   65.5340   30.9050  118.6490 C   0  0  0  0  0  0  0  0  0  0  0  0
   65.2320   31.0850  119.9700 O   0  0  0  0  0  0  0  0  0  0  0  0
   66.8200   31.2340  118.2280 C   0  0  0  0  0  0  0  0  0  0  0  0
   67.7270   31.7200  119.1260 O   0  0  0  0  0  0  0  0  0  0  0  0
   67.1990   31.0760  116.9010 C   0  0  0  0  0  0  0  0  0  0  0  0
   66.0760   29.3370  113.9230 O   0  0  0  0  0  0  0  0  0  0  0  0
   66.3970   29.0840  112.6130 C   0  0  0  0  0  0  0  0  0  0  0  0
   65.7680   28.0010  112.0010 C   0  0  0  0  0  0  0  0  0  0  0  0
   66.0570   27.7010  110.6720 C   0  0  0  0  0  0  0  0  0  0  0  0
   65.4190   26.6330  110.1120 O   0  0  0  0  0  0  0  0  0  0  0  0
   66.9650   28.4640  109.9440 C   0  0  0  0  0  0  0  0  0  0  0  0
   67.5920   29.5450  110.5600 C   0  0  0  0  0  0  0  0  0  0  0  0
   68.4750   30.2620  109.7990 O   0  0  0  0  0  0  0  0  0  0  0  0
   67.3090   29.8560  111.8940 C   0  0  0  0  0  0  0  0  0  0  0  0
   68.0347   32.0468  114.5442 H   0  0  0  0  0  0  0  0  0  0  0  0
   64.2511   29.8520  115.6826 H   0  0  0  0  0  0  0  0  0  0  0  0
   63.5930   30.1428  118.0749 H   0  0  0  0  0  0  0  0  0  0  0  0
   65.9190   31.2190  120.5940 H   0  0  0  0  0  0  0  0  0  0  0  0
   68.6360   31.7540  118.9020 H   0  0  0  0  0  0  0  0  0  0  0  0
   68.2204   31.3345  116.5848 H   0  0  0  0  0  0  0  0  0  0  0  0
   65.0486   27.3878  112.5636 H   0  0  0  0  0  0  0  0  0  0  0  0
   64.5090   26.6920  109.8960 H   0  0  0  0  0  0  0  0  0  0  0  0
   67.1850   28.2167  108.8950 H   0  0  0  0  0  0  0  0  0  0  0  0
   69.3040   29.8910  109.5690 H   0  0  0  0  0  0  0  0  0  0  0  0
  1  2  2  0
  2  3  1  0
  3  4  2  0
  4  5  1  0
  5  6  1  0
  6  7  2  0
  7  8  1  0
  8  9  1  0
  8 10  2  0
 10 11  1  0
 10 12  1  0
  4 13  1  0
 13 14  1  0
 14 15  2  0
 15 16  1  0
 16 17  1  0
 16 18  2  0
 18 19  1  0
 19 20  1  0
 19 21  2  0
 21  2  1  0
 12  5  2  0
 21 14  1  0
  3 22  1  0
  6 23  1  0
  7 24  1  0
  9 25  1  0
 11 26  1  0
 12 27  1  0
 15 28  1  0
 17 29  1  0
 18 30  1  0
 20 31  1  0
M  END
>  <meeko>  (15) 
{"is_sidechain": [false], "free_energy": -6.898, "intermolecular_energy": -8.143, "internal_energy": -0.294}

$$$$
MOL000006_docked
     RDKit          3D

 31 33  0  0  0  0  0  0  0  0999 V2000
   66.7680   31.2970  117.7090 O   0  0  0  0  0  0  0  0  0  0  0  0
   66.1160   30.6470  116.9010 C   0  0  0  0  0  0  0  0  0  0  0  0
   66.5980   30.4120  115.5330 C   0  0  0  0  0  0  0  0  0  0  0  0
   65.8470   29.6790  114.6960 C   0  0  0  0  0  0  0  0  0  0  0  0
   66.2690   29.4170  113.3070 C   0  0  0  0  0  0  0  0  0  0  0  0
   67.2020   30.2460  112.6540 C   0  0  0  0  0  0  0  0  0  0  0  0
   67.6050   29.9830  111.3390 C   0  0  0  0  0  0  0  0  0  0  0  0
   67.0760   28.8850  110.6760 C   0  0  0  0  0  0  0  0  0  0  0  0
   67.4270   28.5750  109.3920 O   0  0  0  0  0  0  0  0  0  0  0  0
   66.1600   28.0540  111.3160 C   0  0  0  0  0  0  0  0  0  0  0  0
   65.6460   26.9730  110.6580 O   0  0  0  0  0  0  0  0  0  0  0  0
   65.7560   28.3060  112.6200 C   0  0  0  0  0  0  0  0  0  0  0  0
   64.6180   29.1310  115.0290 O   0  0  0  0  0  0  0  0  0  0  0  0
   64.1330   29.3300  116.2970 C   0  0  0  0  0  0  0  0  0  0  0  0
   62.8970   28.7620  116.6020 C   0  0  0  0  0  0  0  0  0  0  0  0
   62.3590   28.9330  117.8750 C   0  0  0  0  0  0  0  0  0  0  0  0
   61.1490   28.3600  118.1320 O   0  0  0  0  0  0  0  0  0  0  0  0
   63.0350   29.6620  118.8500 C   0  0  0  0  0  0  0  0  0  0  0  0
   64.2690   30.2290  118.5390 C   0  0  0  0  0  0  0  0  0  0  0  0
   64.8920   30.9360  119.5330 O   0  0  0  0  0  0  0  0  0  0  0  0
   64.8190   30.0640  117.2640 C   0  0  0  0  0  0  0  0  0  0  0  0
   67.5593   30.8302  115.1999 H   0  0  0  0  0  0  0  0  0  0  0  0
   67.6205   31.1135  113.1853 H   0  0  0  0  0  0  0  0  0  0  0  0
   68.3321   30.6389  110.8378 H   0  0  0  0  0  0  0  0  0  0  0  0
   67.6630   27.6950  109.1710 H   0  0  0  0  0  0  0  0  0  0  0  0
   64.7190   26.8440  110.6210 H   0  0  0  0  0  0  0  0  0  0  0  0
   65.0358   27.6367  113.1134 H   0  0  0  0  0  0  0  0  0  0  0  0
   62.3508   28.1830  115.8428 H   0  0  0  0  0  0  0  0  0  0  0  0
   61.0320   27.8350  118.9000 H   0  0  0  0  0  0  0  0  0  0  0  0
   62.6004   29.7885  119.8526 H   0  0  0  0  0  0  0  0  0  0  0  0
   64.8890   30.6100  120.4110 H   0  0  0  0  0  0  0  0  0  0  0  0
  1  2  2  0
  2  3  1  0
  3  4  2  0
  4  5  1  0
  5  6  1  0
  6  7  2  0
  7  8  1  0
  8  9  1  0
  8 10  2  0
 10 11  1  0
 10 12  1  0
  4 13  1  0
 13 14  1  0
 14 15  2  0
 15 16  1  0
 16 17  1  0
 16 18  2  0
 18 19  1  0
 19 20  1  0
 19 21  2  0
 21  2  1  0
 12  5  2  0
 21 14  1  0
  3 22  1  0
  6 23  1  0
  7 24  1  0
  9 25  1  0
 11 26  1  0
 12 27  1  0
 15 28  1  0
 17 29  1  0
 18 30  1  0
 20 31  1  0
M  END
>  <meeko>  (16) 
{"is_sidechain": [false], "free_energy": -6.897, "intermolecular_energy": -8.114, "internal_energy": -0.321}

$$$$
MOL000006_docked
     RDKit          3D

 31 33  0  0  0  0  0  0  0  0999 V2000
   64.3830   27.9100  116.7640 O   0  0  0  0  0  0  0  0  0  0  0  0
   65.0490   28.9370  116.8220 C   0  0  0  0  0  0  0  0  0  0  0  0
   65.1930   29.6940  118.0720 C   0  0  0  0  0  0  0  0  0  0  0  0
   65.9470   30.8030  118.0780 C   0  0  0  0  0  0  0  0  0  0  0  0
   66.1220   31.6140  119.2990 C   0  0  0  0  0  0  0  0  0  0  0  0
   66.3730   32.9980  119.2300 C   0  0  0  0  0  0  0  0  0  0  0  0
   66.5280   33.7620  120.3940 C   0  0  0  0  0  0  0  0  0  0  0  0
   66.4280   33.1380  121.6300 C   0  0  0  0  0  0  0  0  0  0  0  0
   66.5700   33.8270  122.8020 O   0  0  0  0  0  0  0  0  0  0  0  0
   66.1720   31.7730  121.7080 C   0  0  0  0  0  0  0  0  0  0  0  0
   66.0710   31.1670  122.9280 O   0  0  0  0  0  0  0  0  0  0  0  0
   66.0150   31.0080  120.5590 C   0  0  0  0  0  0  0  0  0  0  0  0
   66.6000   31.3080  116.9640 O   0  0  0  0  0  0  0  0  0  0  0  0
   66.4890   30.6300  115.7760 C   0  0  0  0  0  0  0  0  0  0  0  0
   67.1620   31.1590  114.6760 C   0  0  0  0  0  0  0  0  0  0  0  0
   67.0820   30.5100  113.4460 C   0  0  0  0  0  0  0  0  0  0  0  0
   67.7560   31.0610  112.3960 O   0  0  0  0  0  0  0  0  0  0  0  0
   66.3420   29.3410  113.2960 C   0  0  0  0  0  0  0  0  0  0  0  0
   65.6710   28.8170  114.3990 C   0  0  0  0  0  0  0  0  0  0  0  0
   64.9580   27.6650  114.1980 O   0  0  0  0  0  0  0  0  0  0  0  0
   65.7430   29.4600  115.6390 C   0  0  0  0  0  0  0  0  0  0  0  0
   64.6898   29.3564  118.9900 H   0  0  0  0  0  0  0  0  0  0  0  0
   66.4485   33.4865  118.2473 H   0  0  0  0  0  0  0  0  0  0  0  0
   66.7263   34.8420  120.3294 H   0  0  0  0  0  0  0  0  0  0  0  0
   66.8970   34.7050  122.7930 H   0  0  0  0  0  0  0  0  0  0  0  0
   65.3920   30.5430  123.0880 H   0  0  0  0  0  0  0  0  0  0  0  0
   65.8075   29.9306  120.6374 H   0  0  0  0  0  0  0  0  0  0  0  0
   67.7518   32.0819  114.7784 H   0  0  0  0  0  0  0  0  0  0  0  0
   67.3680   31.0690  111.5430 H   0  0  0  0  0  0  0  0  0  0  0  0
   66.2875   28.8373  112.3196 H   0  0  0  0  0  0  0  0  0  0  0  0
   64.2470   27.4490  114.7680 H   0  0  0  0  0  0  0  0  0  0  0  0
  1  2  2  0
  2  3  1  0
  3  4  2  0
  4  5  1  0
  5  6  1  0
  6  7  2  0
  7  8  1  0
  8  9  1  0
  8 10  2  0
 10 11  1  0
 10 12  1  0
  4 13  1  0
 13 14  1  0
 14 15  2  0
 15 16  1  0
 16 17  1  0
 16 18  2  0
 18 19  1  0
 19 20  1  0
 19 21  2  0
 21  2  1  0
 12  5  2  0
 21 14  1  0
  3 22  1  0
  6 23  1  0
  7 24  1  0
  9 25  1  0
 11 26  1  0
 12 27  1  0
 15 28  1  0
 17 29  1  0
 18 30  1  0
 20 31  1  0
M  END
>  <meeko>  (17) 
{"is_sidechain": [false], "free_energy": -6.654, "intermolecular_energy": -7.853, "internal_energy": -0.297}

$$$$
MOL000006_docked
     RDKit          3D

 31 33  0  0  0  0  0  0  0  0999 V2000
   69.0470   30.1800  108.5740 O   0  0  0  0  0  0  0  0  0  0  0  0
   69.3330   29.5030  109.5550 C   0  0  0  0  0  0  0  0  0  0  0  0
   70.7110   29.0640  109.8140 C   0  0  0  0  0  0  0  0  0  0  0  0
   70.9660   28.3370  110.9120 C   0  0  0  0  0  0  0  0  0  0  0  0
   72.3260   27.8560  111.2230 C   0  0  0  0  0  0  0  0  0  0  0  0
   73.4660   28.4740  110.6740 C   0  0  0  0  0  0  0  0  0  0  0  0
   74.7540   28.0180  110.9820 C   0  0  0  0  0  0  0  0  0  0  0  0
   74.9010   26.9420  111.8460 C   0  0  0  0  0  0  0  0  0  0  0  0
   76.1300   26.4490  112.1860 O   0  0  0  0  0  0  0  0  0  0  0  0
   73.7810   26.3300  112.4010 C   0  0  0  0  0  0  0  0  0  0  0  0
   73.9340   25.2730  113.2530 O   0  0  0  0  0  0  0  0  0  0  0  0
   72.5010   26.7770  112.1020 C   0  0  0  0  0  0  0  0  0  0  0  0
   70.0030   27.9470  111.8300 O   0  0  0  0  0  0  0  0  0  0  0  0
   68.7040   28.3360  111.6220 C   0  0  0  0  0  0  0  0  0  0  0  0
   67.7600   27.9320  112.5660 C   0  0  0  0  0  0  0  0  0  0  0  0
   66.4270   28.3000  112.4030 C   0  0  0  0  0  0  0  0  0  0  0  0
   65.5370   27.8860  113.3490 O   0  0  0  0  0  0  0  0  0  0  0  0
   66.0200   29.0650  111.3130 C   0  0  0  0  0  0  0  0  0  0  0  0
   66.9670   29.4640  110.3720 C   0  0  0  0  0  0  0  0  0  0  0  0
   66.5140   30.2150  109.3210 O   0  0  0  0  0  0  0  0  0  0  0  0
   68.3090   29.1010  110.5260 C   0  0  0  0  0  0  0  0  0  0  0  0
   71.5211   29.3275  109.1181 H   0  0  0  0  0  0  0  0  0  0  0  0
   73.3430   29.3285  109.9924 H   0  0  0  0  0  0  0  0  0  0  0  0
   75.6374   28.5063  110.5448 H   0  0  0  0  0  0  0  0  0  0  0  0
   76.2290   25.9360  112.9640 H   0  0  0  0  0  0  0  0  0  0  0  0
   74.1360   24.4240  112.9150 H   0  0  0  0  0  0  0  0  0  0  0  0
   71.6262   26.2861  112.5534 H   0  0  0  0  0  0  0  0  0  0  0  0
   68.0662   27.3274  113.4325 H   0  0  0  0  0  0  0  0  0  0  0  0
   65.8290   27.3700  114.0740 H   0  0  0  0  0  0  0  0  0  0  0  0
   64.9642   29.3507  111.1963 H   0  0  0  0  0  0  0  0  0  0  0  0
   66.1420   29.7940  108.5710 H   0  0  0  0  0  0  0  0  0  0  0  0
  1  2  2  0
  2  3  1  0
  3  4  2  0
  4  5  1  0
  5  6  1  0
  6  7  2  0
  7  8  1  0
  8  9  1  0
  8 10  2  0
 10 11  1  0
 10 12  1  0
  4 13  1  0
 13 14  1  0
 14 15  2  0
 15 16  1  0
 16 17  1  0
 16 18  2  0
 18 19  1  0
 19 20  1  0
 19 21  2  0
 21  2  1  0
 12  5  2  0
 21 14  1  0
  3 22  1  0
  6 23  1  0
  7 24  1  0
  9 25  1  0
 11 26  1  0
 12 27  1  0
 15 28  1  0
 17 29  1  0
 18 30  1  0
 20 31  1  0
M  END
>  <meeko>  (18) 
{"is_sidechain": [false], "free_energy": -6.64, "intermolecular_energy": -7.81, "internal_energy": -0.323}

$$$$
MOL000006_docked
     RDKit          3D

 31 33  0  0  0  0  0  0  0  0999 V2000
   64.5260   27.9040  112.9150 O   0  0  0  0  0  0  0  0  0  0  0  0
   65.2890   28.7250  113.4100 C   0  0  0  0  0  0  0  0  0  0  0  0
   65.2230   29.0790  114.8340 C   0  0  0  0  0  0  0  0  0  0  0  0
   66.0950   29.9740  115.3230 C   0  0  0  0  0  0  0  0  0  0  0  0
   66.0730   30.3800  116.7410 C   0  0  0  0  0  0  0  0  0  0  0  0
   64.9490   30.1440  117.5550 C   0  0  0  0  0  0  0  0  0  0  0  0
   64.9400   30.5240  118.9030 C   0  0  0  0  0  0  0  0  0  0  0  0
   66.0630   31.1390  119.4390 C   0  0  0  0  0  0  0  0  0  0  0  0
   66.1180   31.5340  120.7460 O   0  0  0  0  0  0  0  0  0  0  0  0
   67.1830   31.3690  118.6450 C   0  0  0  0  0  0  0  0  0  0  0  0
   68.2850   31.9720  119.1810 O   0  0  0  0  0  0  0  0  0  0  0  0
   67.2000   30.9940  117.3080 C   0  0  0  0  0  0  0  0  0  0  0  0
   67.0620   30.6140  114.5640 O   0  0  0  0  0  0  0  0  0  0  0  0
   67.1550   30.3110  113.2290 C   0  0  0  0  0  0  0  0  0  0  0  0
   68.1420   30.9680  112.4950 C   0  0  0  0  0  0  0  0  0  0  0  0
   68.2790   30.6970  111.1350 C   0  0  0  0  0  0  0  0  0  0  0  0
   69.2570   31.3600  110.4540 O   0  0  0  0  0  0  0  0  0  0  0  0
   67.4480   29.7810  110.4970 C   0  0  0  0  0  0  0  0  0  0  0  0
   66.4630   29.1280  111.2360 C   0  0  0  0  0  0  0  0  0  0  0  0
   65.6730   28.2380  110.5600 O   0  0  0  0  0  0  0  0  0  0  0  0
   66.3160   29.3930  112.6010 C   0  0  0  0  0  0  0  0  0  0  0  0
   64.4700   28.6174  115.4897 H   0  0  0  0  0  0  0  0  0  0  0  0
   64.0633   29.6531  117.1253 H   0  0  0  0  0  0  0  0  0  0  0  0
   64.0547   30.3375  119.5287 H   0  0  0  0  0  0  0  0  0  0  0  0
   66.9470   31.6250  121.1740 H   0  0  0  0  0  0  0  0  0  0  0  0
   68.5330   31.7950  120.0660 H   0  0  0  0  0  0  0  0  0  0  0  0
   68.0947   31.1779  116.6951 H   0  0  0  0  0  0  0  0  0  0  0  0
   68.8069   31.6942  112.9855 H   0  0  0  0  0  0  0  0  0  0  0  0
   69.4700   32.2440  110.6820 H   0  0  0  0  0  0  0  0  0  0  0  0
   67.5670   29.5749  109.4231 H   0  0  0  0  0  0  0  0  0  0  0  0
   65.9750   27.8580  109.7580 H   0  0  0  0  0  0  0  0  0  0  0  0
  1  2  2  0
  2  3  1  0
  3  4  2  0
  4  5  1  0
  5  6  1  0
  6  7  2  0
  7  8  1  0
  8  9  1  0
  8 10  2  0
 10 11  1  0
 10 12  1  0
  4 13  1  0
 13 14  1  0
 14 15  2  0
 15 16  1  0
 16 17  1  0
 16 18  2  0
 18 19  1  0
 19 20  1  0
 19 21  2  0
 21  2  1  0
 12  5  2  0
 21 14  1  0
  3 22  1  0
  6 23  1  0
  7 24  1  0
  9 25  1  0
 11 26  1  0
 12 27  1  0
 15 28  1  0
 17 29  1  0
 18 30  1  0
 20 31  1  0
M  END
>  <meeko>  (19) 
{"is_sidechain": [false], "free_energy": -6.627, "intermolecular_energy": -7.795, "internal_energy": -0.324}

$$$$
MOL000006_docked
     RDKit          3D

 31 33  0  0  0  0  0  0  0  0999 V2000
   63.1140   28.9960  116.4110 O   0  0  0  0  0  0  0  0  0  0  0  0
   64.2390   29.4010  116.1430 C   0  0  0  0  0  0  0  0  0  0  0  0
   64.8200   29.2350  114.8040 C   0  0  0  0  0  0  0  0  0  0  0  0
   66.0510   29.7110  114.5660 C   0  0  0  0  0  0  0  0  0  0  0  0
   66.6940   29.5670  113.2460 C   0  0  0  0  0  0  0  0  0  0  0  0
   67.7680   30.3930  112.8590 C   0  0  0  0  0  0  0  0  0  0  0  0
   68.3800   30.2430  111.6080 C   0  0  0  0  0  0  0  0  0  0  0  0
   67.9180   29.2610  110.7430 C   0  0  0  0  0  0  0  0  0  0  0  0
   68.4720   29.0640  109.5090 O   0  0  0  0  0  0  0  0  0  0  0  0
   66.8640   28.4340  111.1200 C   0  0  0  0  0  0  0  0  0  0  0  0
   66.4170   27.4670  110.2640 O   0  0  0  0  0  0  0  0  0  0  0  0
   66.2520   28.5750  112.3590 C   0  0  0  0  0  0  0  0  0  0  0  0
   66.8380   30.3460  115.5150 O   0  0  0  0  0  0  0  0  0  0  0  0
   66.3320   30.5180  116.7780 C   0  0  0  0  0  0  0  0  0  0  0  0
   67.1460   31.1640  117.7070 C   0  0  0  0  0  0  0  0  0  0  0  0
   66.6800   31.3650  119.0040 C   0  0  0  0  0  0  0  0  0  0  0  0
   67.5070   32.0020  119.8820 O   0  0  0  0  0  0  0  0  0  0  0  0
   65.4140   30.9310  119.3890 C   0  0  0  0  0  0  0  0  0  0  0  0
   64.6060   30.2850  118.4570 C   0  0  0  0  0  0  0  0  0  0  0  0
   63.3710   29.8790  118.8870 O   0  0  0  0  0  0  0  0  0  0  0  0
   65.0630   30.0780  117.1510 C   0  0  0  0  0  0  0  0  0  0  0  0
   64.2540   28.7280  114.0087 H   0  0  0  0  0  0  0  0  0  0  0  0
   68.1315   31.1677  113.5501 H   0  0  0  0  0  0  0  0  0  0  0  0
   69.2160   30.8951  111.3150 H   0  0  0  0  0  0  0  0  0  0  0  0
   67.9210   28.8900  108.7710 H   0  0  0  0  0  0  0  0  0  0  0  0
   65.6380   26.9880  110.4650 H   0  0  0  0  0  0  0  0  0  0  0  0
   65.4230   27.9103  112.6435 H   0  0  0  0  0  0  0  0  0  0  0  0
   68.1486   31.5123  117.4180 H   0  0  0  0  0  0  0  0  0  0  0  0
   68.3380   31.6260  120.1000 H   0  0  0  0  0  0  0  0  0  0  0  0
   65.0569   31.0964  120.4162 H   0  0  0  0  0  0  0  0  0  0  0  0
   62.8940   29.2340  118.4020 H   0  0  0  0  0  0  0  0  0  0  0  0
  1  2  2  0
  2  3  1  0
  3  4  2  0
  4  5  1  0
  5  6  1  0
  6  7  2  0
  7  8  1  0
  8  9  1  0
  8 10  2  0
 10 11  1  0
 10 12  1  0
  4 13  1  0
 13 14  1  0
 14 15  2  0
 15 16  1  0
 16 17  1  0
 16 18  2  0
 18 19  1  0
 19 20  1  0
 19 21  2  0
 21  2  1  0
 12  5  2  0
 21 14  1  0
  3 22  1  0
  6 23  1  0
  7 24  1  0
  9 25  1  0
 11 26  1  0
 12 27  1  0
 15 28  1  0
 17 29  1  0
 18 30  1  0
 20 31  1  0
M  END
>  <meeko>  (20) 
{"is_sidechain": [false], "free_energy": -6.562, "intermolecular_energy": -7.741, "internal_energy": -0.301}

$$$$
