5281331
 OpenBabel09272609553D

 78 81  0  0  1  0  0  0  0  0999 V2000
    8.4654    0.2812   -0.2569 O   0  0  0  0  0  0  0  0  0  0  0  0
   -0.2253   -0.5593    0.1704 C   0  0  1  0  0  0  0  0  0  0  0  0
    0.4569    0.6961   -0.4283 C   0  0  2  0  0  0  0  0  0  0  0  0
    2.7448   -0.4349   -0.4270 C   0  0  2  0  0  0  0  0  0  0  0  0
    4.2308   -0.3759    0.1124 C   0  0  2  0  0  0  0  0  0  0  0  0
   -1.6753   -0.3639   -0.3706 C   0  0  2  0  0  0  0  0  0  0  0  0
    1.9211    0.8106   -0.0738 C   0  0  0  0  0  0  0  0  0  0  0  0
    0.5222   -1.7804   -0.4015 C   0  0  0  0  0  0  0  0  0  0  0  0
    2.0179   -1.7538   -0.0474 C   0  0  0  0  0  0  0  0  0  0  0  0
    4.7747    1.0603   -0.1639 C   0  0  1  0  0  0  0  0  0  0  0  0
   -0.5219    1.8226   -0.1071 C   0  0  0  0  0  0  0  0  0  0  0  0
   -1.9026    1.1707   -0.2432 C   0  0  0  0  0  0  0  0  0  0  0  0
    5.1123   -1.3976   -0.6579 C   0  0  0  0  0  0  0  0  0  0  0  0
    3.9602    2.1218    0.5905 C   0  0  0  0  0  0  0  0  0  0  0  0
   -0.1976   -0.5764    1.7175 C   0  0  0  0  0  0  0  0  0  0  0  0
    2.4830    1.9337    0.4101 C   0  0  0  0  0  0  0  0  0  0  0  0
   -2.8340   -1.1736    0.2683 C   0  0  2  0  0  0  0  0  0  0  0  0
    6.2745    1.2139    0.1223 C   0  0  0  0  0  0  0  0  0  0  0  0
    4.2914   -0.7093    1.6275 C   0  0  0  0  0  0  0  0  0  0  0  0
    6.6056   -1.2488   -0.3678 C   0  0  0  0  0  0  0  0  0  0  0  0
    7.0964    0.1714   -0.6322 C   0  0  2  0  0  0  0  0  0  0  0  0
   -2.6519   -2.6883    0.1596 C   0  0  0  0  0  0  0  0  0  0  0  0
   -4.1514   -0.8190   -0.3952 C   0  0  0  0  0  0  0  0  0  0  0  0
   -5.2111   -0.3188    0.2617 C   0  0  0  0  0  0  0  0  0  0  0  0
   -6.5314    0.0178   -0.4000 C   0  0  2  0  0  0  0  0  0  0  0  0
   -6.8637    1.5390   -0.3484 C   0  0  0  0  0  0  0  0  0  0  0  0
   -7.6726   -0.8298    0.2054 C   0  0  0  0  0  0  0  0  0  0  0  0
   -5.8257    2.3707   -1.1120 C   0  0  0  0  0  0  0  0  0  0  0  0
   -7.0318    2.1023    1.0667 C   0  0  0  0  0  0  0  0  0  0  0  0
   -7.5335   -2.3200   -0.0881 C   0  0  0  0  0  0  0  0  0  0  0  0
    8.7754    1.1847   -0.4258 H   0  0  0  0  0  0  0  0  0  0  0  0
    0.6004    0.6918   -1.4886 H   0  0  0  0  0  0  0  0  0  0  0  0
    2.8304   -0.4346   -1.4936 H   0  0  0  0  0  0  0  0  0  0  0  0
   -1.7183   -0.7634   -1.3623 H   0  0  0  0  0  0  0  0  0  0  0  0
    0.4188   -1.7818   -1.4665 H   0  0  0  0  0  0  0  0  0  0  0  0
    0.0951   -2.6622    0.0286 H   0  0  0  0  0  0  0  0  0  0  0  0
    2.1142   -1.8968    1.0086 H   0  0  0  0  0  0  0  0  0  0  0  0
    2.4802   -2.5319   -0.6181 H   0  0  0  0  0  0  0  0  0  0  0  0
    4.6535    1.2192   -1.2151 H   0  0  0  0  0  0  0  0  0  0  0  0
   -0.4130    2.6295   -0.8013 H   0  0  0  0  0  0  0  0  0  0  0  0
   -0.3603    2.2417    0.8641 H   0  0  0  0  0  0  0  0  0  0  0  0
   -2.4954    1.3831    0.6219 H   0  0  0  0  0  0  0  0  0  0  0  0
   -2.4199    1.5509   -1.0992 H   0  0  0  0  0  0  0  0  0  0  0  0
    4.9549   -1.2586   -1.7070 H   0  0  0  0  0  0  0  0  0  0  0  0
    4.8224   -2.3746   -0.3320 H   0  0  0  0  0  0  0  0  0  0  0  0
    4.2320    3.0897    0.2243 H   0  0  0  0  0  0  0  0  0  0  0  0
    4.1795    2.0253    1.6334 H   0  0  0  0  0  0  0  0  0  0  0  0
   -0.7210    0.2780    2.0931 H   0  0  0  0  0  0  0  0  0  0  0  0
    0.8170   -0.5505    2.0564 H   0  0  0  0  0  0  0  0  0  0  0  0
   -0.6697   -1.4684    2.0729 H   0  0  0  0  0  0  0  0  0  0  0  0
    1.8596    2.7130    0.6730 H   0  0  0  0  0  0  0  0  0  0  0  0
   -2.8313   -0.9093    1.3051 H   0  0  0  0  0  0  0  0  0  0  0  0
    6.4422    1.0958    1.1724 H   0  0  0  0  0  0  0  0  0  0  0  0
    6.5816    2.1854   -0.2048 H   0  0  0  0  0  0  0  0  0  0  0  0
    3.6878   -0.0123    2.1705 H   0  0  0  0  0  0  0  0  0  0  0  0
    5.3041   -0.6442    1.9669 H   0  0  0  0  0  0  0  0  0  0  0  0
    3.9241   -1.7011    1.7894 H   0  0  0  0  0  0  0  0  0  0  0  0
    7.1490   -1.9251   -0.9942 H   0  0  0  0  0  0  0  0  0  0  0  0
    6.7666   -1.4687    0.6669 H   0  0  0  0  0  0  0  0  0  0  0  0
    6.9821    0.3635   -1.6786 H   0  0  0  0  0  0  0  0  0  0  0  0
   -2.6517   -2.9745   -0.8714 H   0  0  0  0  0  0  0  0  0  0  0  0
   -3.4550   -3.1814    0.6664 H   0  0  0  0  0  0  0  0  0  0  0  0
   -1.7216   -2.9688    0.6078 H   0  0  0  0  0  0  0  0  0  0  0  0
   -4.2387   -0.9712   -1.4122 H   0  0  0  0  0  0  0  0  0  0  0  0
   -5.1204   -0.1542    1.2764 H   0  0  0  0  0  0  0  0  0  0  0  0
   -6.4350   -0.2295   -1.4366 H   0  0  0  0  0  0  0  0  0  0  0  0
   -7.8168    1.6202   -0.8279 H   0  0  0  0  0  0  0  0  0  0  0  0
   -8.6021   -0.4885   -0.2002 H   0  0  0  0  0  0  0  0  0  0  0  0
   -7.6298   -0.7092    1.2677 H   0  0  0  0  0  0  0  0  0  0  0  0
   -4.8750    2.2858   -0.6285 H   0  0  0  0  0  0  0  0  0  0  0  0
   -6.1295    3.3966   -1.1239 H   0  0  0  0  0  0  0  0  0  0  0  0
   -5.7485    2.0099   -2.1164 H   0  0  0  0  0  0  0  0  0  0  0  0
   -6.0992    2.0419    1.5878 H   0  0  0  0  0  0  0  0  0  0  0  0
   -7.7710    1.5339    1.5914 H   0  0  0  0  0  0  0  0  0  0  0  0
   -7.3425    3.1246    1.0091 H   0  0  0  0  0  0  0  0  0  0  0  0
   -7.5719   -2.4803   -1.1453 H   0  0  0  0  0  0  0  0  0  0  0  0
   -8.3333   -2.8524    0.3827 H   0  0  0  0  0  0  0  0  0  0  0  0
   -6.5976   -2.6725    0.2924 H   0  0  0  0  0  0  0  0  0  0  0  0
  1 21  1  0  0  0  0
  1 31  1  0  0  0  0
  2  3  1  0  0  0  0
  2  6  1  0  0  0  0
  2  8  1  0  0  0  0
  2 15  1  1  0  0  0
  3  7  1  0  0  0  0
  3 11  1  0  0  0  0
  3 32  1  6  0  0  0
  4  5  1  0  0  0  0
  4  7  1  0  0  0  0
  4  9  1  0  0  0  0
  4 33  1  6  0  0  0
  5 10  1  0  0  0  0
  5 13  1  0  0  0  0
  5 19  1  1  0  0  0
  6 12  1  0  0  0  0
  6 17  1  0  0  0  0
  6 34  1  6  0  0  0
  7 16  2  0  0  0  0
  8  9  1  0  0  0  0
  8 35  1  0  0  0  0
  8 36  1  0  0  0  0
  9 37  1  0  0  0  0
  9 38  1  0  0  0  0
 10 14  1  0  0  0  0
 10 18  1  0  0  0  0
 10 39  1  6  0  0  0
 11 12  1  0  0  0  0
 11 40  1  0  0  0  0
 11 41  1  0  0  0  0
 12 42  1  0  0  0  0
 12 43  1  0  0  0  0
 13 20  1  0  0  0  0
 13 44  1  0  0  0  0
 13 45  1  0  0  0  0
 14 16  1  0  0  0  0
 14 46  1  0  0  0  0
 14 47  1  0  0  0  0
 15 48  1  0  0  0  0
 15 49  1  0  0  0  0
 15 50  1  0  0  0  0
 16 51  1  0  0  0  0
 17 22  1  0  0  0  0
 17 23  1  0  0  0  0
 17 52  1  1  0  0  0
 18 21  1  0  0  0  0
 18 53  1  0  0  0  0
 18 54  1  0  0  0  0
 19 55  1  0  0  0  0
 19 56  1  0  0  0  0
 19 57  1  0  0  0  0
 20 21  1  0  0  0  0
 20 58  1  0  0  0  0
 20 59  1  0  0  0  0
 21 60  1  6  0  0  0
 22 61  1  0  0  0  0
 22 62  1  0  0  0  0
 22 63  1  0  0  0  0
 23 24  2  0  0  0  0
 23 64  1  0  0  0  0
 24 25  1  0  0  0  0
 24 65  1  0  0  0  0
 25 26  1  0  0  0  0
 25 27  1  0  0  0  0
 25 66  1  6  0  0  0
 26 28  1  0  0  0  0
 26 29  1  0  0  0  0
 26 67  1  0  0  0  0
 27 30  1  0  0  0  0
 27 68  1  0  0  0  0
 27 69  1  0  0  0  0
 28 70  1  0  0  0  0
 28 71  1  0  0  0  0
 28 72  1  0  0  0  0
 29 73  1  0  0  0  0
 29 74  1  0  0  0  0
 29 75  1  0  0  0  0
 30 76  1  0  0  0  0
 30 77  1  0  0  0  0
 30 78  1  0  0  0  0
M  END
>  <PUBCHEM_COMPOUND_CID>
5281331

>  <PUBCHEM_CONFORMER_RMSD>
0.8

>  <PUBCHEM_CONFORMER_DIVERSEORDER>
1
4
5
13
7
6
2
12
11
10
14
8
9
3

>  <PUBCHEM_MMFF94_PARTIAL_CHARGES>
15
1 -0.68
14 0.14
16 -0.29
17 0.14
21 0.28
23 -0.29
24 -0.29
25 0.14
3 0.14
4 0.14
50 0.15
63 0.15
64 0.4
65 0.15
7 -0.28

>  <PUBCHEM_EFFECTIVE_ROTOR_COUNT>
7

>  <PUBCHEM_PHARMACOPHORE_FEATURES>
10
1 1 acceptor
1 1 donor
1 22 hydrophobe
1 30 hydrophobe
3 26 28 29 hydrophobe
4 24 25 26 27 hydrophobe
5 2 3 6 11 12 rings
6 2 3 4 7 8 9 rings
6 4 5 7 10 14 16 rings
6 5 10 13 18 20 21 rings

>  <PUBCHEM_HEAVY_ATOM_COUNT>
30

>  <PUBCHEM_ATOM_DEF_STEREO_COUNT>
9

>  <PUBCHEM_ATOM_UDEF_STEREO_COUNT>
0

>  <PUBCHEM_BOND_DEF_STEREO_COUNT>
1

>  <PUBCHEM_BOND_UDEF_STEREO_COUNT>
0

>  <PUBCHEM_ISOTOPIC_ATOM_COUNT>
0

>  <PUBCHEM_COMPONENT_COUNT>
1

>  <PUBCHEM_CACTVS_TAUTO_COUNT>
1

>  <PUBCHEM_CONFORMER_ID>
0050963300000001

>  <PUBCHEM_MMFF94_ENERGY>
83.8329

>  <PUBCHEM_FEATURE_SELFOVERLAP>
51.114

>  <PUBCHEM_SHAPE_FINGERPRINT>
10 15 18041000605918686081
10050765 1 18122906700718892526
100830 39 18410855435166096733
10299344 5 18260830405685227055
10674148 151 18187362143431419000
10906281 52 18335434460337618607
11578080 2 16986292036057646744
12166972 35 18410576232200679521
12236239 1 18131070441964985483
13533116 47 13973699290813385380
13811026 1 18410572907119947587
13885169 127 18410856572978482615
14251764 18 18113615698715399699
14856354 85 16343977019211178413
14933364 13 18410011035620140045
15131766 46 15265058238921313208
15183329 4 18408598150567748529
15461852 350 17489579075159398661
1577012 14 18187640276617390587
15849732 13 18412826906489924743
16087824 20 18339362967949728613
18608769 82 18335700516318634757
19611394 137 17970359316053957603
21033648 29 18339631339640050248
21130935 74 18412262818244108355
21267235 1 18411422821108084702
21279426 13 18410853227294021797
21315763 28 18412825811415545679
21792934 111 18271514318277597856
221357 26 18412826881020742276
23522609 53 18043556991448606581
23559900 14 18338793524453401632
23569943 247 17750786641322404795
249057 3 18272370905743007894
255183 451 17842847616725425614
3004659 81 18334011709323374616
335352 9 18411136965275320926
350125 39 18410572864334194804
3633792 109 17846225405700515459
4073 2 18114747160684304626
4093350 32 17418096486051481974
4098825 35 18411136943932333317
4339292 15 16271633599710875375
5104073 3 18335135427819224843
59755656 215 18409730634216454998
6086070 43 17417804080308740705
6328613 192 18412265047368687801
7226269 152 18272370846141103417

>  <PUBCHEM_SHAPE_MULTIPOLES>
611.52
22.56
2.5
0.97
9.2
0.16
-0.3
1.36
0.8
2.62
0.07
0.03
0.07
0.35

>  <PUBCHEM_SHAPE_SELFOVERLAP>
1265.793

>  <PUBCHEM_SHAPE_VOLUME>
349.4

>  <PUBCHEM_COORDINATE_TYPE>
2
5
10

>  <Energy>
92.4247

$$$$
