MOL004355_docked
     RDKit          3D

 78 81  0  0  0  0  0  0  0  0999 V2000
   17.7970   61.8430   16.1370 C   0  0  0  0  0  0  0  0  0  0  0  0
   18.9480   62.7750   15.7750 C   0  0  0  0  0  0  0  0  0  0  0  0
   19.1810   63.8890   16.8200 C   0  0  2  0  0  0  0  0  0  0  0  0
   19.3540   65.2300   16.1380 C   0  0  0  0  0  0  0  0  0  0  0  0
   18.9780   66.4000   16.6820 C   0  0  0  0  0  0  0  0  0  0  0  0
   19.1340   67.7430   15.9940 C   0  0  1  0  0  0  0  0  0  0  0  0
   17.7380   68.2320   15.6090 C   0  0  0  0  0  0  0  0  0  0  0  0
   19.9050   68.7300   16.9100 C   0  0  1  0  0  0  0  0  0  0  0  0
   20.6920   69.7900   16.0840 C   0  0  0  0  0  0  0  0  0  0  0  0
   20.7070   71.0830   16.9070 C   0  0  0  0  0  0  0  0  0  0  0  0
   20.1760   70.6620   18.2750 C   0  0  1  0  0  0  0  0  0  0  0  0
   19.7010   71.6890   19.2760 C   0  0  0  0  0  0  0  0  0  0  0  0
   19.8340   73.0160   19.1000 C   0  0  0  0  0  0  0  0  0  0  0  0
   19.5390   74.0370   20.1590 C   0  0  0  0  0  0  0  0  0  0  0  0
   19.4250   73.4050   21.5550 C   0  0  1  0  0  0  0  0  0  0  0  0
   19.0210   74.4530   22.6000 C   0  0  0  0  0  0  0  0  0  0  0  0
   18.9150   73.8400   23.9940 C   0  0  1  0  0  0  0  0  0  0  0  0
   18.4370   74.8190   24.9110 O   0  0  0  0  0  0  0  0  0  0  0  0
   17.9960   72.6230   24.0200 C   0  0  0  0  0  0  0  0  0  0  0  0
   18.4050   71.5800   22.9790 C   0  0  0  0  0  0  0  0  0  0  0  0
   18.4960   72.1520   21.5380 C   0  0  1  0  0  0  0  0  0  0  0  0
   17.0680   72.5280   21.0600 C   0  0  0  0  0  0  0  0  0  0  0  0
   19.1560   71.0820   20.5770 C   0  0  1  0  0  0  0  0  0  0  0  0
   18.2390   69.8550   20.3200 C   0  0  0  0  0  0  0  0  0  0  0  0
   18.7690   68.8770   19.2590 C   0  0  0  0  0  0  0  0  0  0  0  0
   19.1090   69.5920   17.9370 C   0  0  2  0  0  0  0  0  0  0  0  0
   17.8350   70.1970   17.2980 C   0  0  0  0  0  0  0  0  0  0  0  0
   20.3630   63.5370   17.7720 C   0  0  0  0  0  0  0  0  0  0  0  0
   21.0710   62.2460   17.3400 C   0  0  0  0  0  0  0  0  0  0  0  0
   19.9770   63.4390   19.2520 C   0  0  0  0  0  0  0  0  0  0  0  0
   17.7116   61.7738   17.2315 H   0  0  0  0  0  0  0  0  0  0  0  0
   16.8593   62.2394   15.7203 H   0  0  0  0  0  0  0  0  0  0  0  0
   17.9897   60.8434   15.7203 H   0  0  0  0  0  0  0  0  0  0  0  0
   19.8678   62.1778   15.6897 H   0  0  0  0  0  0  0  0  0  0  0  0
   18.6848   63.2663   14.8267 H   0  0  0  0  0  0  0  0  0  0  0  0
   18.2879   63.9649   17.4577 H   0  0  0  0  0  0  0  0  0  0  0  0
   19.8143   65.2475   15.1391 H   0  0  0  0  0  0  0  0  0  0  0  0
   18.5302   66.3828   17.6866 H   0  0  0  0  0  0  0  0  0  0  0  0
   19.7355   67.6611   15.0767 H   0  0  0  0  0  0  0  0  0  0  0  0
   17.1566   68.4357   16.5203 H   0  0  0  0  0  0  0  0  0  0  0  0
   17.8233   69.1538   15.0148 H   0  0  0  0  0  0  0  0  0  0  0  0
   17.2295   67.4585   15.0148 H   0  0  0  0  0  0  0  0  0  0  0  0
   20.5139   68.0054   17.4705 H   0  0  0  0  0  0  0  0  0  0  0  0
   21.7209   69.4430   15.9078 H   0  0  0  0  0  0  0  0  0  0  0  0
   20.2176   69.9545   15.1053 H   0  0  0  0  0  0  0  0  0  0  0  0
   21.7293   71.4804   16.9907 H   0  0  0  0  0  0  0  0  0  0  0  0
   20.1049   71.8813   16.4486 H   0  0  0  0  0  0  0  0  0  0  0  0
   21.0356   70.3152   18.8673 H   0  0  0  0  0  0  0  0  0  0  0  0
   20.1803   73.3745   18.1194 H   0  0  0  0  0  0  0  0  0  0  0  0
   20.3500   74.7800   20.1711 H   0  0  0  0  0  0  0  0  0  0  0  0
   18.5728   74.5049   19.9189 H   0  0  0  0  0  0  0  0  0  0  0  0
   20.4169   73.0369   21.8561 H   0  0  0  0  0  0  0  0  0  0  0  0
   19.7777   75.2512   22.6170 H   0  0  0  0  0  0  0  0  0  0  0  0
   18.0350   74.8545   22.3233 H   0  0  0  0  0  0  0  0  0  0  0  0
   19.9206   73.5030   24.2859 H   0  0  0  0  0  0  0  0  0  0  0  0
   17.4710   74.7540   24.9780 H   0  0  0  0  0  0  0  0  0  0  0  0
   18.0399   72.1650   25.0192 H   0  0  0  0  0  0  0  0  0  0  0  0
   16.9758   72.9599   23.7839 H   0  0  0  0  0  0  0  0  0  0  0  0
   19.3899   71.1768   23.2573 H   0  0  0  0  0  0  0  0  0  0  0  0
   17.6256   70.8038   22.9724 H   0  0  0  0  0  0  0  0  0  0  0  0
   16.4218   72.6981   21.9338 H   0  0  0  0  0  0  0  0  0  0  0  0
   17.1138   73.4447   20.4537 H   0  0  0  0  0  0  0  0  0  0  0  0
   16.6564   71.7076   20.4537 H   0  0  0  0  0  0  0  0  0  0  0  0
   20.0333   70.7035   21.1220 H   0  0  0  0  0  0  0  0  0  0  0  0
   18.1247   69.3067   21.2667 H   0  0  0  0  0  0  0  0  0  0  0  0
   17.2871   70.2498   19.9353 H   0  0  0  0  0  0  0  0  0  0  0  0
   19.6778   68.3919   19.6449 H   0  0  0  0  0  0  0  0  0  0  0  0
   17.9812   68.1372   19.0536 H   0  0  0  0  0  0  0  0  0  0  0  0
   17.1467   70.5239   18.0913 H   0  0  0  0  0  0  0  0  0  0  0  0
   18.1119   71.0598   16.6744 H   0  0  0  0  0  0  0  0  0  0  0  0
   17.3413   69.4372   16.6744 H   0  0  0  0  0  0  0  0  0  0  0  0
   21.0521   64.3895   17.6803 H   0  0  0  0  0  0  0  0  0  0  0  0
   21.3806   61.6815   18.2319 H   0  0  0  0  0  0  0  0  0  0  0  0
   20.3825   61.6336   16.7392 H   0  0  0  0  0  0  0  0  0  0  0  0
   21.9575   62.4974   16.7392 H   0  0  0  0  0  0  0  0  0  0  0  0
   20.8553   63.6620   19.8755 H   0  0  0  0  0  0  0  0  0  0  0  0
   19.1783   64.1629   19.4713 H   0  0  0  0  0  0  0  0  0  0  0  0
   19.6203   62.4218   19.4713 H   0  0  0  0  0  0  0  0  0  0  0  0
  1  2  1  0
  2  3  1  0
  3  4  1  0
  4  5  2  0
  5  6  1  0
  6  7  1  0
  6  8  1  0
  8  9  1  0
  9 10  1  0
 10 11  1  0
 11 12  1  0
 12 13  2  0
 13 14  1  0
 14 15  1  0
 15 16  1  0
 16 17  1  0
 17 18  1  0
 17 19  1  0
 19 20  1  0
 20 21  1  0
 21 22  1  6
 21 23  1  0
 23 24  1  0
 24 25  1  0
 25 26  1  0
 26 27  1  6
  3 28  1  0
 28 29  1  0
 28 30  1  0
 26  8  1  0
 26 11  1  0
 23 12  1  0
 21 15  1  0
  1 31  1  0
  1 32  1  0
  1 33  1  0
  2 34  1  0
  2 35  1  0
  3 36  1  1
  4 37  1  0
  5 38  1  0
  6 39  1  6
  7 40  1  0
  7 41  1  0
  7 42  1  0
  8 43  1  1
  9 44  1  0
  9 45  1  0
 10 46  1  0
 10 47  1  0
 11 48  1  1
 13 49  1  0
 14 50  1  0
 14 51  1  0
 15 52  1  1
 16 53  1  0
 16 54  1  0
 17 55  1  1
 18 56  1  0
 19 57  1  0
 19 58  1  0
 20 59  1  0
 20 60  1  0
 22 61  1  0
 22 62  1  0
 22 63  1  0
 23 64  1  1
 24 65  1  0
 24 66  1  0
 25 67  1  0
 25 68  1  0
 27 69  1  0
 27 70  1  0
 27 71  1  0
 28 72  1  0
 29 73  1  0
 29 74  1  0
 29 75  1  0
 30 76  1  0
 30 77  1  0
 30 78  1  0
M  END
>  <meeko>  (1) 
{"is_sidechain": [false], "free_energy": -3.792, "intermolecular_energy": -5.011, "internal_energy": 0.303}

$$$$
MOL004355_docked
     RDKit          3D

 78 81  0  0  0  0  0  0  0  0999 V2000
   20.8340   62.6320   18.1040 C   0  0  0  0  0  0  0  0  0  0  0  0
   19.9310   63.8310   17.8360 C   0  0  0  0  0  0  0  0  0  0  0  0
   19.6810   64.0800   16.3310 C   0  0  2  0  0  0  0  0  0  0  0  0
   19.3210   65.5310   16.0860 C   0  0  0  0  0  0  0  0  0  0  0  0
   19.3280   66.4750   17.0410 C   0  0  0  0  0  0  0  0  0  0  0  0
   18.9510   67.9240   16.8020 C   0  0  1  0  0  0  0  0  0  0  0  0
   18.0580   67.9750   15.5630 C   0  0  0  0  0  0  0  0  0  0  0  0
   18.2850   68.5230   18.0700 C   0  0  1  0  0  0  0  0  0  0  0  0
   18.4800   67.6060   19.3130 C   0  0  0  0  0  0  0  0  0  0  0  0
   18.5710   68.5210   20.5400 C   0  0  0  0  0  0  0  0  0  0  0  0
   18.1610   69.8940   20.0130 C   0  0  1  0  0  0  0  0  0  0  0  0
   18.4460   71.1490   20.8040 C   0  0  0  0  0  0  0  0  0  0  0  0
   18.9420   71.1430   22.0550 C   0  0  0  0  0  0  0  0  0  0  0  0
   19.0560   72.3650   22.9180 C   0  0  0  0  0  0  0  0  0  0  0  0
   18.2230   73.5370   22.3740 C   0  0  1  0  0  0  0  0  0  0  0  0
   18.4390   74.8000   23.2170 C   0  0  0  0  0  0  0  0  0  0  0  0
   17.6080   75.9690   22.6940 C   0  0  1  0  0  0  0  0  0  0  0  0
   17.9180   77.1440   23.4350 O   0  0  0  0  0  0  0  0  0  0  0  0
   17.8440   76.2240   21.2080 C   0  0  0  0  0  0  0  0  0  0  0  0
   17.6240   74.9630   20.3730 C   0  0  0  0  0  0  0  0  0  0  0  0
   18.4730   73.7530   20.8500 C   0  0  1  0  0  0  0  0  0  0  0  0
   19.9700   74.0550   20.5720 C   0  0  0  0  0  0  0  0  0  0  0  0
   18.0070   72.4400   20.0990 C   0  0  1  0  0  0  0  0  0  0  0  0
   18.3740   72.4470   18.5900 C   0  0  0  0  0  0  0  0  0  0  0  0
   18.0930   71.1210   17.8620 C   0  0  0  0  0  0  0  0  0  0  0  0
   18.7460   69.9230   18.5800 C   0  0  2  0  0  0  0  0  0  0  0  0
   20.2890   70.0490   18.5640 C   0  0  0  0  0  0  0  0  0  0  0  0
   18.6250   63.0880   15.7590 C   0  0  0  0  0  0  0  0  0  0  0  0
   18.0120   62.2170   16.8620 C   0  0  0  0  0  0  0  0  0  0  0  0
   19.1430   62.1950   14.6270 C   0  0  0  0  0  0  0  0  0  0  0  0
   20.9415   62.4893   19.1894 H   0  0  0  0  0  0  0  0  0  0  0  0
   20.3885   61.7305   17.6580 H   0  0  0  0  0  0  0  0  0  0  0  0
   21.8234   62.8112   17.6580 H   0  0  0  0  0  0  0  0  0  0  0  0
   18.9624   63.6560   18.3271 H   0  0  0  0  0  0  0  0  0  0  0  0
   20.4413   64.7203   18.2344 H   0  0  0  0  0  0  0  0  0  0  0  0
   20.6130   63.8823   15.7812 H   0  0  0  0  0  0  0  0  0  0  0  0
   19.0372   65.8288   15.0658 H   0  0  0  0  0  0  0  0  0  0  0  0
   19.6251   66.1792   18.0580 H   0  0  0  0  0  0  0  0  0  0  0  0
   19.8380   68.5463   16.6122 H   0  0  0  0  0  0  0  0  0  0  0  0
   17.0042   68.0352   15.8727 H   0  0  0  0  0  0  0  0  0  0  0  0
   18.3147   68.8599   14.9622 H   0  0  0  0  0  0  0  0  0  0  0  0
   18.2123   67.0666   14.9622 H   0  0  0  0  0  0  0  0  0  0  0  0
   17.2548   68.6166   17.6959 H   0  0  0  0  0  0  0  0  0  0  0  0
   17.6244   66.9222   19.4151 H   0  0  0  0  0  0  0  0  0  0  0  0
   19.3905   66.9972   19.2108 H   0  0  0  0  0  0  0  0  0  0  0  0
   17.8830   68.1846   21.3297 H   0  0  0  0  0  0  0  0  0  0  0  0
   19.5747   68.5244   20.9901 H   0  0  0  0  0  0  0  0  0  0  0  0
   17.0655   69.9593   20.0876 H   0  0  0  0  0  0  0  0  0  0  0  0
   19.2847   70.1837   22.4701 H   0  0  0  0  0  0  0  0  0  0  0  0
   18.7028   72.1186   23.9302 H   0  0  0  0  0  0  0  0  0  0  0  0
   20.1113   72.6754   22.9280 H   0  0  0  0  0  0  0  0  0  0  0  0
   17.1565   73.2845   22.4674 H   0  0  0  0  0  0  0  0  0  0  0  0
   18.1470   74.5904   24.2566 H   0  0  0  0  0  0  0  0  0  0  0  0
   19.5018   75.0775   23.1579 H   0  0  0  0  0  0  0  0  0  0  0  0
   16.5475   75.7065   22.8219 H   0  0  0  0  0  0  0  0  0  0  0  0
   18.0410   77.8890   22.8250 H   0  0  0  0  0  0  0  0  0  0  0  0
   17.1475   77.0036   20.8657 H   0  0  0  0  0  0  0  0  0  0  0  0
   18.8890   76.5419   21.0777 H   0  0  0  0  0  0  0  0  0  0  0  0
   16.5606   74.6875   20.4306 H   0  0  0  0  0  0  0  0  0  0  0  0
   17.9375   75.1951   19.3445 H   0  0  0  0  0  0  0  0  0  0  0  0
   20.5057   74.1631   21.5267 H   0  0  0  0  0  0  0  0  0  0  0  0
   20.4102   73.2276   19.9962 H   0  0  0  0  0  0  0  0  0  0  0  0
   20.0550   74.9884   19.9962 H   0  0  0  0  0  0  0  0  0  0  0  0
   16.9082   72.4493   20.1500 H   0  0  0  0  0  0  0  0  0  0  0  0
   17.7917   73.2399   18.0979 H   0  0  0  0  0  0  0  0  0  0  0  0
   19.4597   72.6136   18.5315 H   0  0  0  0  0  0  0  0  0  0  0  0
   17.0054   70.9613   17.8205 H   0  0  0  0  0  0  0  0  0  0  0  0
   18.5220   71.1887   16.8514 H   0  0  0  0  0  0  0  0  0  0  0  0
   20.6651   70.0797   19.5972 H   0  0  0  0  0  0  0  0  0  0  0  0
   20.7222   69.1832   18.0417 H   0  0  0  0  0  0  0  0  0  0  0  0
   20.5760   70.9736   18.0417 H   0  0  0  0  0  0  0  0  0  0  0  0
   17.8499   63.7346   15.3217 H   0  0  0  0  0  0  0  0  0  0  0  0
   18.2948   62.6188   17.8462 H   0  0  0  0  0  0  0  0  0  0  0  0
   16.9162   62.2206   16.7656 H   0  0  0  0  0  0  0  0  0  0  0  0
   18.3852   61.1867   16.7656 H   0  0  0  0  0  0  0  0  0  0  0  0
   19.6515   61.3184   15.0549 H   0  0  0  0  0  0  0  0  0  0  0  0
   18.2978   61.8620   14.0067 H   0  0  0  0  0  0  0  0  0  0  0  0
   19.8516   62.7633   14.0067 H   0  0  0  0  0  0  0  0  0  0  0  0
  1  2  1  0
  2  3  1  0
  3  4  1  0
  4  5  2  0
  5  6  1  0
  6  7  1  0
  6  8  1  0
  8  9  1  0
  9 10  1  0
 10 11  1  0
 11 12  1  0
 12 13  2  0
 13 14  1  0
 14 15  1  0
 15 16  1  0
 16 17  1  0
 17 18  1  0
 17 19  1  0
 19 20  1  0
 20 21  1  0
 21 22  1  1
 21 23  1  0
 23 24  1  0
 24 25  1  0
 25 26  1  0
 26 27  1  1
  3 28  1  0
 28 29  1  0
 28 30  1  0
 26  8  1  0
 26 11  1  0
 23 12  1  0
 21 15  1  0
  1 31  1  0
  1 32  1  0
  1 33  1  0
  2 34  1  0
  2 35  1  0
  3 36  1  6
  4 37  1  0
  5 38  1  0
  6 39  1  6
  7 40  1  0
  7 41  1  0
  7 42  1  0
  8 43  1  6
  9 44  1  0
  9 45  1  0
 10 46  1  0
 10 47  1  0
 11 48  1  6
 13 49  1  0
 14 50  1  0
 14 51  1  0
 15 52  1  6
 16 53  1  0
 16 54  1  0
 17 55  1  6
 18 56  1  0
 19 57  1  0
 19 58  1  0
 20 59  1  0
 20 60  1  0
 22 61  1  0
 22 62  1  0
 22 63  1  0
 23 64  1  6
 24 65  1  0
 24 66  1  0
 25 67  1  0
 25 68  1  0
 27 69  1  0
 27 70  1  0
 27 71  1  0
 28 72  1  0
 29 73  1  0
 29 74  1  0
 29 75  1  0
 30 76  1  0
 30 77  1  0
 30 78  1  0
M  END
>  <meeko>  (2) 
{"is_sidechain": [false], "free_energy": -3.285, "intermolecular_energy": -3.375, "internal_energy": -0.663}

$$$$
MOL004355_docked
     RDKit          3D

 78 81  0  0  0  0  0  0  0  0999 V2000
   16.3680   75.2910   20.4490 C   0  0  0  0  0  0  0  0  0  0  0  0
   16.1340   75.6830   21.9040 C   0  0  0  0  0  0  0  0  0  0  0  0
   17.1490   76.7260   22.4240 C   0  0  2  0  0  0  0  0  0  0  0  0
   18.5410   76.4120   21.9130 C   0  0  0  0  0  0  0  0  0  0  0  0
   19.4230   75.6420   22.5720 C   0  0  0  0  0  0  0  0  0  0  0  0
   20.8230   75.3410   22.0720 C   0  0  1  0  0  0  0  0  0  0  0  0
   21.4610   74.3490   23.0440 C   0  0  0  0  0  0  0  0  0  0  0  0
   20.7720   74.8280   20.6080 C   0  0  1  0  0  0  0  0  0  0  0  0
   22.1970   74.6850   19.9960 C   0  0  0  0  0  0  0  0  0  0  0  0
   22.1510   73.5080   19.0150 C   0  0  0  0  0  0  0  0  0  0  0  0
   20.6640   73.1840   18.8880 C   0  0  1  0  0  0  0  0  0  0  0  0
   20.1990   71.8760   18.2940 C   0  0  0  0  0  0  0  0  0  0  0  0
   21.0280   70.9820   17.7240 C   0  0  0  0  0  0  0  0  0  0  0  0
   20.5640   69.7710   16.9690 C   0  0  0  0  0  0  0  0  0  0  0  0
   19.0730   69.8520   16.6050 C   0  0  1  0  0  0  0  0  0  0  0  0
   18.6040   68.5590   15.9270 C   0  0  0  0  0  0  0  0  0  0  0  0
   17.1260   68.6310   15.5500 C   0  0  1  0  0  0  0  0  0  0  0  0
   16.7070   67.3770   15.0230 O   0  0  0  0  0  0  0  0  0  0  0  0
   16.2460   69.0060   16.7380 C   0  0  0  0  0  0  0  0  0  0  0  0
   16.7160   70.2980   17.4080 C   0  0  0  0  0  0  0  0  0  0  0  0
   18.2090   70.2600   17.8380 C   0  0  1  0  0  0  0  0  0  0  0  0
   18.3690   69.2320   18.9910 C   0  0  0  0  0  0  0  0  0  0  0  0
   18.6740   71.7020   18.2910 C   0  0  1  0  0  0  0  0  0  0  0  0
   18.0220   72.1540   19.6260 C   0  0  0  0  0  0  0  0  0  0  0  0
   18.5760   73.4740   20.1890 C   0  0  0  0  0  0  0  0  0  0  0  0
   20.1120   73.4460   20.3110 C   0  0  2  0  0  0  0  0  0  0  0  0
   20.5610   72.3750   21.3350 C   0  0  0  0  0  0  0  0  0  0  0  0
   17.0880   76.8540   23.9750 C   0  0  0  0  0  0  0  0  0  0  0  0
   17.5830   75.5780   24.6670 C   0  0  0  0  0  0  0  0  0  0  0  0
   15.7090   77.2340   24.5240 C   0  0  0  0  0  0  0  0  0  0  0  0
   16.9315   74.3471   20.4096 H   0  0  0  0  0  0  0  0  0  0  0  0
   15.3995   75.1612   19.9439 H   0  0  0  0  0  0  0  0  0  0  0  0
   16.9419   76.0819   19.9439 H   0  0  0  0  0  0  0  0  0  0  0  0
   15.1221   76.1047   21.9941 H   0  0  0  0  0  0  0  0  0  0  0  0
   16.2584   74.7745   22.5115 H   0  0  0  0  0  0  0  0  0  0  0  0
   16.8742   77.7140   22.0260 H   0  0  0  0  0  0  0  0  0  0  0  0
   18.8468   76.8393   20.9466 H   0  0  0  0  0  0  0  0  0  0  0  0
   19.1112   75.2037   23.5315 H   0  0  0  0  0  0  0  0  0  0  0  0
   21.4471   76.2464   22.0460 H   0  0  0  0  0  0  0  0  0  0  0  0
   21.2573   74.6657   24.0775 H   0  0  0  0  0  0  0  0  0  0  0  0
   21.0370   73.3478   22.8770 H   0  0  0  0  0  0  0  0  0  0  0  0
   22.5479   74.3195   22.8770 H   0  0  0  0  0  0  0  0  0  0  0  0
   20.1360   75.6124   20.1718 H   0  0  0  0  0  0  0  0  0  0  0  0
   22.4739   75.6078   19.4652 H   0  0  0  0  0  0  0  0  0  0  0  0
   22.9450   74.5092   20.7832 H   0  0  0  0  0  0  0  0  0  0  0  0
   22.5722   73.7957   18.0404 H   0  0  0  0  0  0  0  0  0  0  0  0
   22.7416   72.6472   19.3617 H   0  0  0  0  0  0  0  0  0  0  0  0
   20.2577   73.8210   18.0885 H   0  0  0  0  0  0  0  0  0  0  0  0
   22.1112   71.1491   17.8172 H   0  0  0  0  0  0  0  0  0  0  0  0
   21.1509   69.6843   16.0427 H   0  0  0  0  0  0  0  0  0  0  0  0
   20.7072   68.8932   17.6163 H   0  0  0  0  0  0  0  0  0  0  0  0
   18.9334   70.6540   15.8652 H   0  0  0  0  0  0  0  0  0  0  0  0
   19.1982   68.3971   15.0156 H   0  0  0  0  0  0  0  0  0  0  0  0
   18.7402   67.7282   16.6350 H   0  0  0  0  0  0  0  0  0  0  0  0
   17.0143   69.4201   14.7919 H   0  0  0  0  0  0  0  0  0  0  0  0
   17.4760   66.8990   14.6730 H   0  0  0  0  0  0  0  0  0  0  0  0
   15.2127   69.1428   16.3865 H   0  0  0  0  0  0  0  0  0  0  0  0
   16.3078   68.1950   17.4785 H   0  0  0  0  0  0  0  0  0  0  0  0
   16.5776   71.1286   16.7002 H   0  0  0  0  0  0  0  0  0  0  0  0
   16.1172   70.4276   18.3216 H   0  0  0  0  0  0  0  0  0  0  0  0
   18.2884   69.7501   19.9580 H   0  0  0  0  0  0  0  0  0  0  0  0
   17.5785   68.4708   18.9158 H   0  0  0  0  0  0  0  0  0  0  0  0
   19.3534   68.7470   18.9158 H   0  0  0  0  0  0  0  0  0  0  0  0
   18.2972   72.3857   17.5160 H   0  0  0  0  0  0  0  0  0  0  0  0
   16.9423   72.2785   19.4567 H   0  0  0  0  0  0  0  0  0  0  0  0
   18.2528   71.3750   20.3676 H   0  0  0  0  0  0  0  0  0  0  0  0
   18.2874   74.2961   19.5176 H   0  0  0  0  0  0  0  0  0  0  0  0
   18.1563   73.6186   21.1955 H   0  0  0  0  0  0  0  0  0  0  0  0
   20.4021   72.7539   22.3554 H   0  0  0  0  0  0  0  0  0  0  0  0
   19.9716   71.4578   21.1886 H   0  0  0  0  0  0  0  0  0  0  0  0
   21.6282   72.1523   21.1886 H   0  0  0  0  0  0  0  0  0  0  0  0
   17.7634   77.6901   24.2088 H   0  0  0  0  0  0  0  0  0  0  0  0
   17.5321   75.7092   25.7580 H   0  0  0  0  0  0  0  0  0  0  0  0
   16.9486   74.7300   24.3697 H   0  0  0  0  0  0  0  0  0  0  0  0
   18.6233   75.3796   24.3697 H   0  0  0  0  0  0  0  0  0  0  0  0
   15.7372   77.2262   25.6236 H   0  0  0  0  0  0  0  0  0  0  0  0
   15.4385   78.2402   24.1713 H   0  0  0  0  0  0  0  0  0  0  0  0
   14.9612   76.5084   24.1713 H   0  0  0  0  0  0  0  0  0  0  0  0
  1  2  1  0
  2  3  1  0
  3  4  1  0
  4  5  2  0
  5  6  1  0
  6  7  1  0
  6  8  1  0
  8  9  1  0
  9 10  1  0
 10 11  1  0
 11 12  1  0
 12 13  2  0
 13 14  1  0
 14 15  1  0
 15 16  1  0
 16 17  1  0
 17 18  1  0
 17 19  1  0
 19 20  1  0
 20 21  1  0
 21 22  1  1
 21 23  1  0
 23 24  1  0
 24 25  1  0
 25 26  1  0
 26 27  1  1
  3 28  1  0
 28 29  1  0
 28 30  1  0
 26  8  1  0
 26 11  1  0
 23 12  1  0
 21 15  1  0
  1 31  1  0
  1 32  1  0
  1 33  1  0
  2 34  1  0
  2 35  1  0
  3 36  1  6
  4 37  1  0
  5 38  1  0
  6 39  1  6
  7 40  1  0
  7 41  1  0
  7 42  1  0
  8 43  1  6
  9 44  1  0
  9 45  1  0
 10 46  1  0
 10 47  1  0
 11 48  1  6
 13 49  1  0
 14 50  1  0
 14 51  1  0
 15 52  1  6
 16 53  1  0
 16 54  1  0
 17 55  1  6
 18 56  1  0
 19 57  1  0
 19 58  1  0
 20 59  1  0
 20 60  1  0
 22 61  1  0
 22 62  1  0
 22 63  1  0
 23 64  1  6
 24 65  1  0
 24 66  1  0
 25 67  1  0
 25 68  1  0
 27 69  1  0
 27 70  1  0
 27 71  1  0
 28 72  1  0
 29 73  1  0
 29 74  1  0
 29 75  1  0
 30 76  1  0
 30 77  1  0
 30 78  1  0
M  END
>  <meeko>  (3) 
{"is_sidechain": [false], "free_energy": -2.815, "intermolecular_energy": -4.416, "internal_energy": 0.999}

$$$$
MOL004355_docked
     RDKit          3D

 78 81  0  0  0  0  0  0  0  0999 V2000
   17.8070   62.1230   15.9170 C   0  0  0  0  0  0  0  0  0  0  0  0
   18.9860   63.0680   15.7070 C   0  0  0  0  0  0  0  0  0  0  0  0
   19.0760   64.1770   16.7800 C   0  0  2  0  0  0  0  0  0  0  0  0
   19.4030   65.5100   16.1410 C   0  0  0  0  0  0  0  0  0  0  0  0
   18.9810   66.6930   16.6190 C   0  0  0  0  0  0  0  0  0  0  0  0
   19.2920   68.0280   15.9710 C   0  0  1  0  0  0  0  0  0  0  0  0
   19.0850   67.8740   14.4640 C   0  0  0  0  0  0  0  0  0  0  0  0
   18.4250   69.1480   16.6040 C   0  0  1  0  0  0  0  0  0  0  0  0
   17.0520   68.6060   17.0990 C   0  0  0  0  0  0  0  0  0  0  0  0
   16.6590   69.4280   18.3320 C   0  0  0  0  0  0  0  0  0  0  0  0
   17.6650   70.5770   18.3520 C   0  0  1  0  0  0  0  0  0  0  0  0
   17.8580   71.4230   19.5880 C   0  0  0  0  0  0  0  0  0  0  0  0
   17.0860   71.3220   20.6860 C   0  0  0  0  0  0  0  0  0  0  0  0
   17.1450   72.2750   21.8430 C   0  0  0  0  0  0  0  0  0  0  0  0
   17.9010   73.5650   21.4920 C   0  0  1  0  0  0  0  0  0  0  0  0
   18.0350   74.4740   22.7200 C   0  0  0  0  0  0  0  0  0  0  0  0
   18.7760   75.7660   22.3810 C   0  0  1  0  0  0  0  0  0  0  0  0
   18.9710   76.5280   23.5670 O   0  0  0  0  0  0  0  0  0  0  0  0
   20.1220   75.5000   21.7160 C   0  0  0  0  0  0  0  0  0  0  0  0
   19.9830   74.5970   20.4900 C   0  0  0  0  0  0  0  0  0  0  0  0
   19.2620   73.2550   20.7940 C   0  0  1  0  0  0  0  0  0  0  0  0
   20.1720   72.3970   21.7130 C   0  0  0  0  0  0  0  0  0  0  0  0
   18.9420   72.4990   19.4410 C   0  0  1  0  0  0  0  0  0  0  0  0
   20.2180   71.9630   18.7340 C   0  0  0  0  0  0  0  0  0  0  0  0
   19.9400   71.0770   17.5090 C   0  0  0  0  0  0  0  0  0  0  0  0
   18.9730   69.9230   17.8420 C   0  0  2  0  0  0  0  0  0  0  0  0
   19.6050   68.9600   18.8760 C   0  0  0  0  0  0  0  0  0  0  0  0
   20.0690   63.7890   17.9150 C   0  0  0  0  0  0  0  0  0  0  0  0
   20.8740   62.5320   17.5570 C   0  0  0  0  0  0  0  0  0  0  0  0
   19.4190   63.6070   19.2910 C   0  0  0  0  0  0  0  0  0  0  0  0
   17.6350   61.9852   16.9947 H   0  0  0  0  0  0  0  0  0  0  0  0
   16.9062   62.5520   15.4539 H   0  0  0  0  0  0  0  0  0  0  0  0
   18.0296   61.1504   15.4539 H   0  0  0  0  0  0  0  0  0  0  0  0
   19.9149   62.4794   15.7338 H   0  0  0  0  0  0  0  0  0  0  0  0
   18.8388   63.5637   14.7361 H   0  0  0  0  0  0  0  0  0  0  0  0
   18.0917   64.2836   17.2593 H   0  0  0  0  0  0  0  0  0  0  0  0
   20.0224   65.5102   15.2320 H   0  0  0  0  0  0  0  0  0  0  0  0
   18.3732   66.6927   17.5358 H   0  0  0  0  0  0  0  0  0  0  0  0
   20.3356   68.3289   16.1453 H   0  0  0  0  0  0  0  0  0  0  0  0
   18.2152   67.2269   14.2776 H   0  0  0  0  0  0  0  0  0  0  0  0
   18.9093   68.8627   14.0151 H   0  0  0  0  0  0  0  0  0  0  0  0
   19.9815   67.4215   14.0151 H   0  0  0  0  0  0  0  0  0  0  0  0
   18.3908   69.8425   15.7517 H   0  0  0  0  0  0  0  0  0  0  0  0
   16.2940   68.7231   16.3105 H   0  0  0  0  0  0  0  0  0  0  0  0
   17.1206   67.5367   17.3478 H   0  0  0  0  0  0  0  0  0  0  0  0
   15.6321   69.8101   18.2351 H   0  0  0  0  0  0  0  0  0  0  0  0
   16.6785   68.8345   19.2580 H   0  0  0  0  0  0  0  0  0  0  0  0
   17.2533   71.3833   17.7272 H   0  0  0  0  0  0  0  0  0  0  0  0
   16.3682   70.4901   20.7381 H   0  0  0  0  0  0  0  0  0  0  0  0
   16.1185   72.5354   22.1405 H   0  0  0  0  0  0  0  0  0  0  0  0
   17.6849   71.7788   22.6629 H   0  0  0  0  0  0  0  0  0  0  0  0
   17.3098   74.1292   20.7556 H   0  0  0  0  0  0  0  0  0  0  0  0
   17.0301   74.7248   23.0906 H   0  0  0  0  0  0  0  0  0  0  0  0
   18.6117   73.9360   23.4868 H   0  0  0  0  0  0  0  0  0  0  0  0
   18.1575   76.3268   21.6648 H   0  0  0  0  0  0  0  0  0  0  0  0
   19.5770   77.2640   23.3830 H   0  0  0  0  0  0  0  0  0  0  0  0
   20.5601   76.4593   21.4034 H   0  0  0  0  0  0  0  0  0  0  0  0
   20.7676   74.9884   22.4451 H   0  0  0  0  0  0  0  0  0  0  0  0
   19.4082   75.1362   19.7226 H   0  0  0  0  0  0  0  0  0  0  0  0
   20.9997   74.3509   20.1496 H   0  0  0  0  0  0  0  0  0  0  0  0
   19.9402   72.6156   22.7658 H   0  0  0  0  0  0  0  0  0  0  0  0
   19.9943   71.3302   21.5122 H   0  0  0  0  0  0  0  0  0  0  0  0
   21.2265   72.6372   21.5122 H   0  0  0  0  0  0  0  0  0  0  0  0
   18.5161   73.2633   18.7743 H   0  0  0  0  0  0  0  0  0  0  0  0
   20.8176   72.8250   18.4063 H   0  0  0  0  0  0  0  0  0  0  0  0
   20.7410   71.3308   19.4667 H   0  0  0  0  0  0  0  0  0  0  0  0
   19.4953   71.6960   16.7159 H   0  0  0  0  0  0  0  0  0  0  0  0
   20.8943   70.6386   17.1816 H   0  0  0  0  0  0  0  0  0  0  0  0
   19.3746   69.3111   19.8927 H   0  0  0  0  0  0  0  0  0  0  0  0
   19.1939   67.9495   18.7351 H   0  0  0  0  0  0  0  0  0  0  0  0
   20.6956   68.9351   18.7351 H   0  0  0  0  0  0  0  0  0  0  0  0
   20.7440   64.6538   17.9958 H   0  0  0  0  0  0  0  0  0  0  0  0
   21.1967   62.0281   18.4800 H   0  0  0  0  0  0  0  0  0  0  0  0
   20.2447   61.8492   16.9672 H   0  0  0  0  0  0  0  0  0  0  0  0
   21.7574   62.8180   16.9672 H   0  0  0  0  0  0  0  0  0  0  0  0
   20.1601   63.8145   20.0769 H   0  0  0  0  0  0  0  0  0  0  0  0
   18.5730   64.3028   19.3918 H   0  0  0  0  0  0  0  0  0  0  0  0
   19.0574   62.5730   19.3918 H   0  0  0  0  0  0  0  0  0  0  0  0
  1  2  1  0
  2  3  1  0
  3  4  1  0
  4  5  2  0
  5  6  1  0
  6  7  1  0
  6  8  1  0
  8  9  1  0
  9 10  1  0
 10 11  1  0
 11 12  1  0
 12 13  2  0
 13 14  1  0
 14 15  1  0
 15 16  1  0
 16 17  1  0
 17 18  1  0
 17 19  1  0
 19 20  1  0
 20 21  1  0
 21 22  1  1
 21 23  1  0
 23 24  1  0
 24 25  1  0
 25 26  1  0
 26 27  1  1
  3 28  1  0
 28 29  1  0
 28 30  1  0
 26  8  1  0
 26 11  1  0
 23 12  1  0
 21 15  1  0
  1 31  1  0
  1 32  1  0
  1 33  1  0
  2 34  1  0
  2 35  1  0
  3 36  1  1
  4 37  1  0
  5 38  1  0
  6 39  1  6
  7 40  1  0
  7 41  1  0
  7 42  1  0
  8 43  1  6
  9 44  1  0
  9 45  1  0
 10 46  1  0
 10 47  1  0
 11 48  1  6
 13 49  1  0
 14 50  1  0
 14 51  1  0
 15 52  1  6
 16 53  1  0
 16 54  1  0
 17 55  1  6
 18 56  1  0
 19 57  1  0
 19 58  1  0
 20 59  1  0
 20 60  1  0
 22 61  1  0
 22 62  1  0
 22 63  1  0
 23 64  1  6
 24 65  1  0
 24 66  1  0
 25 67  1  0
 25 68  1  0
 27 69  1  0
 27 70  1  0
 27 71  1  0
 28 72  1  0
 29 73  1  0
 29 74  1  0
 29 75  1  0
 30 76  1  0
 30 77  1  0
 30 78  1  0
M  END
>  <meeko>  (4) 
{"is_sidechain": [false], "free_energy": -2.079, "intermolecular_energy": -1.732, "internal_energy": -0.713}

$$$$
MOL004355_docked
     RDKit          3D

 78 81  0  0  0  0  0  0  0  0999 V2000
   16.7650   76.9150   23.9770 C   0  0  0  0  0  0  0  0  0  0  0  0
   17.0010   75.5020   23.4550 C   0  0  0  0  0  0  0  0  0  0  0  0
   18.1680   74.7790   24.1660 C   0  0  2  0  0  0  0  0  0  0  0  0
   19.4760   75.0520   23.4520 C   0  0  0  0  0  0  0  0  0  0  0  0
   19.5670   75.7130   22.2850 C   0  0  0  0  0  0  0  0  0  0  0  0
   20.8730   75.9730   21.5600 C   0  0  1  0  0  0  0  0  0  0  0  0
   22.0110   75.5000   22.4650 C   0  0  0  0  0  0  0  0  0  0  0  0
   20.8620   75.2840   20.1690 C   0  0  1  0  0  0  0  0  0  0  0  0
   22.3030   75.0300   19.6380 C   0  0  0  0  0  0  0  0  0  0  0  0
   22.2590   73.7420   18.8080 C   0  0  0  0  0  0  0  0  0  0  0  0
   20.7680   73.4430   18.6610 C   0  0  1  0  0  0  0  0  0  0  0  0
   20.2870   72.0830   18.2140 C   0  0  0  0  0  0  0  0  0  0  0  0
   21.1090   71.1040   17.7920 C   0  0  0  0  0  0  0  0  0  0  0  0
   20.6380   69.8210   17.1740 C   0  0  0  0  0  0  0  0  0  0  0  0
   19.1650   69.8940   16.7420 C   0  0  1  0  0  0  0  0  0  0  0  0
   18.6820   68.5390   16.2100 C   0  0  0  0  0  0  0  0  0  0  0  0
   17.2220   68.6010   15.7670 C   0  0  1  0  0  0  0  0  0  0  0  0
   16.7850   67.3020   15.3810 O   0  0  0  0  0  0  0  0  0  0  0  0
   16.3110   69.1430   16.8630 C   0  0  0  0  0  0  0  0  0  0  0  0
   16.7940   70.4950   17.3880 C   0  0  0  0  0  0  0  0  0  0  0  0
   18.2670   70.4730   17.8800 C   0  0  1  0  0  0  0  0  0  0  0  0
   18.3530   69.5930   19.1550 C   0  0  0  0  0  0  0  0  0  0  0  0
   18.7580   71.9490   18.1700 C   0  0  1  0  0  0  0  0  0  0  0  0
   18.0710   72.5790   19.4120 C   0  0  0  0  0  0  0  0  0  0  0  0
   18.6430   73.9440   19.8310 C   0  0  0  0  0  0  0  0  0  0  0  0
   20.1720   73.8930   20.0180 C   0  0  2  0  0  0  0  0  0  0  0  0
   20.5500   72.9460   21.1830 C   0  0  0  0  0  0  0  0  0  0  0  0
   17.8760   73.2580   24.3330 C   0  0  0  0  0  0  0  0  0  0  0  0
   18.2530   72.7610   25.7340 C   0  0  0  0  0  0  0  0  0  0  0  0
   18.5370   72.3660   23.2770 C   0  0  0  0  0  0  0  0  0  0  0  0
   16.7667   76.9046   25.0769 H   0  0  0  0  0  0  0  0  0  0  0  0
   17.5649   77.5779   23.6153 H   0  0  0  0  0  0  0  0  0  0  0  0
   15.7931   77.2819   23.6153 H   0  0  0  0  0  0  0  0  0  0  0  0
   16.0826   74.9155   23.6052 H   0  0  0  0  0  0  0  0  0  0  0  0
   17.2672   75.5860   22.3910 H   0  0  0  0  0  0  0  0  0  0  0  0
   18.2655   75.1848   25.1837 H   0  0  0  0  0  0  0  0  0  0  0  0
   20.4050   74.6883   23.9153 H   0  0  0  0  0  0  0  0  0  0  0  0
   18.6387   76.0875   21.8289 H   0  0  0  0  0  0  0  0  0  0  0  0
   21.0169   77.0447   21.3583 H   0  0  0  0  0  0  0  0  0  0  0  0
   21.7171   75.6222   23.5179 H   0  0  0  0  0  0  0  0  0  0  0  0
   22.2226   74.4394   22.2641 H   0  0  0  0  0  0  0  0  0  0  0  0
   22.9120   76.0981   22.2641 H   0  0  0  0  0  0  0  0  0  0  0  0
   20.2675   76.0244   19.6138 H   0  0  0  0  0  0  0  0  0  0  0  0
   22.6272   75.8726   19.0095 H   0  0  0  0  0  0  0  0  0  0  0  0
   23.0151   74.9340   20.4709 H   0  0  0  0  0  0  0  0  0  0  0  0
   22.7251   73.8959   17.8236 H   0  0  0  0  0  0  0  0  0  0  0  0
   22.8101   72.9161   19.2814 H   0  0  0  0  0  0  0  0  0  0  0  0
   20.4104   73.9864   17.7739 H   0  0  0  0  0  0  0  0  0  0  0  0
   22.1926   71.2541   17.9075 H   0  0  0  0  0  0  0  0  0  0  0  0
   21.2565   69.6049   16.2904 H   0  0  0  0  0  0  0  0  0  0  0  0
   20.7304   69.0270   17.9297 H   0  0  0  0  0  0  0  0  0  0  0  0
   19.0787   70.6015   15.9041 H   0  0  0  0  0  0  0  0  0  0  0  0
   19.3045   68.2498   15.3505 H   0  0  0  0  0  0  0  0  0  0  0  0
   18.7662   67.7998   17.0202 H   0  0  0  0  0  0  0  0  0  0  0  0
   17.1621   69.2922   14.9134 H   0  0  0  0  0  0  0  0  0  0  0  0
   16.2260   67.3700   14.5910 H   0  0  0  0  0  0  0  0  0  0  0  0
   15.2961   69.2615   16.4557 H   0  0  0  0  0  0  0  0  0  0  0  0
   16.3213   68.4287   17.6995 H   0  0  0  0  0  0  0  0  0  0  0  0
   16.7074   71.2349   16.5786 H   0  0  0  0  0  0  0  0  0  0  0  0
   16.1655   70.7515   18.2535 H   0  0  0  0  0  0  0  0  0  0  0  0
   18.2904   70.2332   20.0473 H   0  0  0  0  0  0  0  0  0  0  0  0
   17.5209   68.8736   19.1608 H   0  0  0  0  0  0  0  0  0  0  0  0
   19.3087   69.0483   19.1608 H   0  0  0  0  0  0  0  0  0  0  0  0
   18.4311   72.5406   17.3022 H   0  0  0  0  0  0  0  0  0  0  0  0
   17.0025   72.7088   19.1852 H   0  0  0  0  0  0  0  0  0  0  0  0
   18.2509   71.8922   20.2522 H   0  0  0  0  0  0  0  0  0  0  0  0
   18.4043   74.6838   19.0527 H   0  0  0  0  0  0  0  0  0  0  0  0
   18.1906   74.2222   20.7943 H   0  0  0  0  0  0  0  0  0  0  0  0
   20.3502   73.4465   22.1419 H   0  0  0  0  0  0  0  0  0  0  0  0
   19.9500   72.0264   21.1174 H   0  0  0  0  0  0  0  0  0  0  0  0
   21.6183   72.6923   21.1174 H   0  0  0  0  0  0  0  0  0  0  0  0
   16.7895   73.1698   24.1858 H   0  0  0  0  0  0  0  0  0  0  0  0
   17.7706   73.3970   26.4908 H   0  0  0  0  0  0  0  0  0  0  0  0
   17.9139   71.7220   25.8580 H   0  0  0  0  0  0  0  0  0  0  0  0
   19.3450   72.8076   25.8580 H   0  0  0  0  0  0  0  0  0  0  0  0
   19.1207   71.5783   23.7758 H   0  0  0  0  0  0  0  0  0  0  0  0
   17.7608   71.9049   22.6486 H   0  0  0  0  0  0  0  0  0  0  0  0
   19.2040   72.9744   22.6486 H   0  0  0  0  0  0  0  0  0  0  0  0
  1  2  1  0
  2  3  1  0
  3  4  1  0
  4  5  2  0
  5  6  1  0
  6  7  1  0
  6  8  1  0
  8  9  1  0
  9 10  1  0
 10 11  1  0
 11 12  1  0
 12 13  2  0
 13 14  1  0
 14 15  1  0
 15 16  1  0
 16 17  1  0
 17 18  1  0
 17 19  1  0
 19 20  1  0
 20 21  1  0
 21 22  1  1
 21 23  1  0
 23 24  1  0
 24 25  1  0
 25 26  1  0
 26 27  1  1
  3 28  1  0
 28 29  1  0
 28 30  1  0
 26  8  1  0
 26 11  1  0
 23 12  1  0
 21 15  1  0
  1 31  1  0
  1 32  1  0
  1 33  1  0
  2 34  1  0
  2 35  1  0
  3 36  1  1
  4 37  1  0
  5 38  1  0
  6 39  1  6
  7 40  1  0
  7 41  1  0
  7 42  1  0
  8 43  1  6
  9 44  1  0
  9 45  1  0
 10 46  1  0
 10 47  1  0
 11 48  1  6
 13 49  1  0
 14 50  1  0
 14 51  1  0
 15 52  1  6
 16 53  1  0
 16 54  1  0
 17 55  1  6
 18 56  1  0
 19 57  1  0
 19 58  1  0
 20 59  1  0
 20 60  1  0
 22 61  1  0
 22 62  1  0
 22 63  1  0
 23 64  1  6
 24 65  1  0
 24 66  1  0
 25 67  1  0
 25 68  1  0
 27 69  1  0
 27 70  1  0
 27 71  1  0
 28 72  1  0
 29 73  1  0
 29 74  1  0
 29 75  1  0
 30 76  1  0
 30 77  1  0
 30 78  1  0
M  END
>  <meeko>  (5) 
{"is_sidechain": [false], "free_energy": -1.663, "intermolecular_energy": -1.873, "internal_energy": -0.022}

$$$$
MOL004355_docked
     RDKit          3D

 78 81  0  0  0  0  0  0  0  0999 V2000
   16.3620   74.5450   20.9800 C   0  0  0  0  0  0  0  0  0  0  0  0
   16.0120   75.7530   21.8430 C   0  0  0  0  0  0  0  0  0  0  0  0
   17.2460   76.5950   22.2390 C   0  0  2  0  0  0  0  0  0  0  0  0
   18.5050   76.0120   21.6310 C   0  0  0  0  0  0  0  0  0  0  0  0
   19.7460   76.4160   21.9500 C   0  0  0  0  0  0  0  0  0  0  0  0
   21.0080   75.8460   21.3300 C   0  0  1  0  0  0  0  0  0  0  0  0
   22.2020   76.4420   22.0750 C   0  0  0  0  0  0  0  0  0  0  0  0
   20.9690   74.2950   21.3610 C   0  0  1  0  0  0  0  0  0  0  0  0
   20.2170   73.7610   22.6150 C   0  0  0  0  0  0  0  0  0  0  0  0
   19.5290   72.4530   22.2060 C   0  0  0  0  0  0  0  0  0  0  0  0
   20.1150   72.1350   20.8330 C   0  0  1  0  0  0  0  0  0  0  0  0
   19.4610   71.1250   19.9210 C   0  0  0  0  0  0  0  0  0  0  0  0
   18.4240   70.3510   20.2910 C   0  0  0  0  0  0  0  0  0  0  0  0
   17.8840   69.2200   19.4660 C   0  0  0  0  0  0  0  0  0  0  0  0
   18.8530   68.8080   18.3460 C   0  0  1  0  0  0  0  0  0  0  0  0
   18.2330   67.7230   17.4570 C   0  0  0  0  0  0  0  0  0  0  0  0
   19.1910   67.2960   16.3470 C   0  0  1  0  0  0  0  0  0  0  0  0
   18.5390   66.3690   15.4850 O   0  0  0  0  0  0  0  0  0  0  0  0
   19.6940   68.4840   15.5330 C   0  0  0  0  0  0  0  0  0  0  0  0
   20.3140   69.5610   16.4240 C   0  0  0  0  0  0  0  0  0  0  0  0
   19.3640   70.0500   17.5510 C   0  0  1  0  0  0  0  0  0  0  0  0
   18.1800   70.8190   16.9060 C   0  0  0  0  0  0  0  0  0  0  0  0
   20.1590   70.9700   18.5630 C   0  0  1  0  0  0  0  0  0  0  0  0
   20.5640   72.3360   17.9440 C   0  0  0  0  0  0  0  0  0  0  0  0
   21.1860   73.3260   18.9430 C   0  0  0  0  0  0  0  0  0  0  0  0
   20.2930   73.5290   20.1820 C   0  0  2  0  0  0  0  0  0  0  0  0
   18.9460   74.1810   19.7850 C   0  0  0  0  0  0  0  0  0  0  0  0
   17.3440   76.7680   23.7840 C   0  0  0  0  0  0  0  0  0  0  0  0
   17.8270   75.4820   24.4670 C   0  0  0  0  0  0  0  0  0  0  0  0
   16.0500   77.2470   24.4500 C   0  0  0  0  0  0  0  0  0  0  0  0
   16.6094   73.6910   21.6277 H   0  0  0  0  0  0  0  0  0  0  0  0
   15.5018   74.2865   20.3450 H   0  0  0  0  0  0  0  0  0  0  0  0
   17.2272   74.7863   20.3450 H   0  0  0  0  0  0  0  0  0  0  0  0
   15.3165   76.3942   21.2816 H   0  0  0  0  0  0  0  0  0  0  0  0
   15.5635   75.3724   22.7725 H   0  0  0  0  0  0  0  0  0  0  0  0
   17.1278   77.6075   21.8256 H   0  0  0  0  0  0  0  0  0  0  0  0
   18.3969   75.2111   20.8847 H   0  0  0  0  0  0  0  0  0  0  0  0
   19.8536   77.2076   22.7062 H   0  0  0  0  0  0  0  0  0  0  0  0
   21.0958   76.1172   20.2676 H   0  0  0  0  0  0  0  0  0  0  0  0
   22.0361   76.3592   23.1593 H   0  0  0  0  0  0  0  0  0  0  0  0
   23.1157   75.8943   21.8010 H   0  0  0  0  0  0  0  0  0  0  0  0
   22.3135   77.5015   21.8010 H   0  0  0  0  0  0  0  0  0  0  0  0
   22.0499   74.0944   21.3248 H   0  0  0  0  0  0  0  0  0  0  0  0
   20.9304   73.5729   23.4309 H   0  0  0  0  0  0  0  0  0  0  0  0
   19.4801   74.4957   22.9717 H   0  0  0  0  0  0  0  0  0  0  0  0
   19.7580   71.6510   22.9232 H   0  0  0  0  0  0  0  0  0  0  0  0
   18.4328   72.5420   22.1859 H   0  0  0  0  0  0  0  0  0  0  0  0
   21.0370   71.5579   20.9969 H   0  0  0  0  0  0  0  0  0  0  0  0
   17.9427   70.5604   21.2577 H   0  0  0  0  0  0  0  0  0  0  0  0
   17.7106   68.3539   20.1216 H   0  0  0  0  0  0  0  0  0  0  0  0
   16.9484   69.5589   18.9972 H   0  0  0  0  0  0  0  0  0  0  0  0
   19.7471   68.3575   18.8017 H   0  0  0  0  0  0  0  0  0  0  0  0
   17.9912   66.8473   18.0773 H   0  0  0  0  0  0  0  0  0  0  0  0
   17.3255   68.1346   16.9911 H   0  0  0  0  0  0  0  0  0  0  0  0
   20.0638   66.8254   16.8232 H   0  0  0  0  0  0  0  0  0  0  0  0
   19.0210   66.3150   14.6450 H   0  0  0  0  0  0  0  0  0  0  0  0
   20.4536   68.1310   14.8200 H   0  0  0  0  0  0  0  0  0  0  0  0
   18.8349   68.9272   15.0082 H   0  0  0  0  0  0  0  0  0  0  0  0
   21.2226   69.1495   16.8878 H   0  0  0  0  0  0  0  0  0  0  0  0
   20.5311   70.4280   15.7828 H   0  0  0  0  0  0  0  0  0  0  0  0
   17.5389   71.2354   17.6969 H   0  0  0  0  0  0  0  0  0  0  0  0
   18.5702   71.6365   16.2820 H   0  0  0  0  0  0  0  0  0  0  0  0
   17.5918   70.1301   16.2820 H   0  0  0  0  0  0  0  0  0  0  0  0
   21.0967   70.4332   18.7694 H   0  0  0  0  0  0  0  0  0  0  0  0
   21.2959   72.1481   17.1446 H   0  0  0  0  0  0  0  0  0  0  0  0
   19.6376   72.8012   17.5760 H   0  0  0  0  0  0  0  0  0  0  0  0
   22.1622   72.9371   19.2681 H   0  0  0  0  0  0  0  0  0  0  0  0
   21.2944   74.2972   18.4380 H   0  0  0  0  0  0  0  0  0  0  0  0
   18.3876   74.4513   20.6934 H   0  0  0  0  0  0  0  0  0  0  0  0
   19.1380   75.0859   19.1898 H   0  0  0  0  0  0  0  0  0  0  0  0
   18.3554   73.4691   19.1898 H   0  0  0  0  0  0  0  0  0  0  0  0
   18.0874   77.5666   23.9244 H   0  0  0  0  0  0  0  0  0  0  0  0
   17.7801   75.6069   25.5589 H   0  0  0  0  0  0  0  0  0  0  0  0
   17.1828   74.6427   24.1659 H   0  0  0  0  0  0  0  0  0  0  0  0
   18.8644   75.2743   24.1659 H   0  0  0  0  0  0  0  0  0  0  0  0
   16.1631   77.2051   25.5434 H   0  0  0  0  0  0  0  0  0  0  0  0
   15.8407   78.2822   24.1424 H   0  0  0  0  0  0  0  0  0  0  0  0
   15.2171   76.5976   24.1424 H   0  0  0  0  0  0  0  0  0  0  0  0
  1  2  1  0
  2  3  1  0
  3  4  1  0
  4  5  2  0
  5  6  1  0
  6  7  1  0
  6  8  1  0
  8  9  1  0
  9 10  1  0
 10 11  1  0
 11 12  1  0
 12 13  2  0
 13 14  1  0
 14 15  1  0
 15 16  1  0
 16 17  1  0
 17 18  1  0
 17 19  1  0
 19 20  1  0
 20 21  1  0
 21 22  1  6
 21 23  1  0
 23 24  1  0
 24 25  1  0
 25 26  1  0
 26 27  1  6
  3 28  1  0
 28 29  1  0
 28 30  1  0
 26  8  1  0
 26 11  1  0
 23 12  1  0
 21 15  1  0
  1 31  1  0
  1 32  1  0
  1 33  1  0
  2 34  1  0
  2 35  1  0
  3 36  1  6
  4 37  1  0
  5 38  1  0
  6 39  1  6
  7 40  1  0
  7 41  1  0
  7 42  1  0
  8 43  1  1
  9 44  1  0
  9 45  1  0
 10 46  1  0
 10 47  1  0
 11 48  1  1
 13 49  1  0
 14 50  1  0
 14 51  1  0
 15 52  1  1
 16 53  1  0
 16 54  1  0
 17 55  1  1
 18 56  1  0
 19 57  1  0
 19 58  1  0
 20 59  1  0
 20 60  1  0
 22 61  1  0
 22 62  1  0
 22 63  1  0
 23 64  1  1
 24 65  1  0
 24 66  1  0
 25 67  1  0
 25 68  1  0
 27 69  1  0
 27 70  1  0
 27 71  1  0
 28 72  1  0
 29 73  1  0
 29 74  1  0
 29 75  1  0
 30 76  1  0
 30 77  1  0
 30 78  1  0
M  END
>  <meeko>  (6) 
{"is_sidechain": [false], "free_energy": -1.115, "intermolecular_energy": -2.162, "internal_energy": 0.991}

$$$$
MOL004355_docked
     RDKit          3D

 78 81  0  0  0  0  0  0  0  0999 V2000
   18.5950   68.4550   20.4440 C   0  0  0  0  0  0  0  0  0  0  0  0
   17.8430   67.6690   19.3760 C   0  0  0  0  0  0  0  0  0  0  0  0
   18.0540   68.2240   17.9490 C   0  0  2  0  0  0  0  0  0  0  0  0
   19.0730   69.3450   17.9610 C   0  0  0  0  0  0  0  0  0  0  0  0
   20.0180   69.5060   17.0200 C   0  0  0  0  0  0  0  0  0  0  0  0
   21.0510   70.6170   17.0380 C   0  0  1  0  0  0  0  0  0  0  0  0
   20.6920   71.6040   15.9270 C   0  0  0  0  0  0  0  0  0  0  0  0
   21.1170   71.2660   18.4460 C   0  0  1  0  0  0  0  0  0  0  0  0
   22.5250   71.8620   18.7420 C   0  0  0  0  0  0  0  0  0  0  0  0
   22.3160   73.0900   19.6360 C   0  0  0  0  0  0  0  0  0  0  0  0
   20.8470   73.0100   20.0450 C   0  0  1  0  0  0  0  0  0  0  0  0
   20.1370   74.2040   20.6380 C   0  0  0  0  0  0  0  0  0  0  0  0
   20.7600   75.3500   20.9690 C   0  0  0  0  0  0  0  0  0  0  0  0
   20.1090   76.4700   21.7250 C   0  0  0  0  0  0  0  0  0  0  0  0
   18.7960   76.0310   22.3920 C   0  0  1  0  0  0  0  0  0  0  0  0
   18.1010   77.2190   23.0700 C   0  0  0  0  0  0  0  0  0  0  0  0
   16.8000   76.7930   23.7460 C   0  0  1  0  0  0  0  0  0  0  0  0
   16.1370   77.9400   24.2690 O   0  0  0  0  0  0  0  0  0  0  0  0
   15.8690   76.0560   22.7900 C   0  0  0  0  0  0  0  0  0  0  0  0
   16.5650   74.8700   22.1200 C   0  0  0  0  0  0  0  0  0  0  0  0
   17.8800   75.2610   21.3910 C   0  0  1  0  0  0  0  0  0  0  0  0
   17.5260   76.1490   20.1680 C   0  0  0  0  0  0  0  0  0  0  0  0
   18.6540   73.9560   20.9440 C   0  0  1  0  0  0  0  0  0  0  0  0
   17.9330   73.1890   19.8020 C   0  0  0  0  0  0  0  0  0  0  0  0
   18.7350   72.0120   19.2210 C   0  0  0  0  0  0  0  0  0  0  0  0
   20.1500   72.4420   18.7850 C   0  0  2  0  0  0  0  0  0  0  0  0
   20.0780   73.4660   17.6260 C   0  0  0  0  0  0  0  0  0  0  0  0
   16.7030   68.6400   17.2950 C   0  0  0  0  0  0  0  0  0  0  0  0
   16.7840   68.6120   15.7640 C   0  0  0  0  0  0  0  0  0  0  0  0
   16.1700   70.0010   17.7560 C   0  0  0  0  0  0  0  0  0  0  0  0
   18.2736   68.1191   21.4409 H   0  0  0  0  0  0  0  0  0  0  0  0
   19.6760   68.2857   20.3309 H   0  0  0  0  0  0  0  0  0  0  0  0
   18.3780   69.5274   20.3309 H   0  0  0  0  0  0  0  0  0  0  0  0
   18.1907   66.6257   19.4002 H   0  0  0  0  0  0  0  0  0  0  0  0
   16.7701   67.7527   19.6037 H   0  0  0  0  0  0  0  0  0  0  0  0
   18.4637   67.4226   17.3166 H   0  0  0  0  0  0  0  0  0  0  0  0
   19.0369   70.0691   18.7883 H   0  0  0  0  0  0  0  0  0  0  0  0
   20.0445   68.7891   16.1861 H   0  0  0  0  0  0  0  0  0  0  0  0
   22.0630   70.2328   16.8424 H   0  0  0  0  0  0  0  0  0  0  0  0
   20.3483   72.5490   16.3730 H   0  0  0  0  0  0  0  0  0  0  0  0
   21.5788   71.7936   15.3043 H   0  0  0  0  0  0  0  0  0  0  0  0
   19.8907   71.1796   15.3043 H   0  0  0  0  0  0  0  0  0  0  0  0
   20.8243   70.3957   19.0517 H   0  0  0  0  0  0  0  0  0  0  0  0
   23.1477   71.1188   19.2614 H   0  0  0  0  0  0  0  0  0  0  0  0
   23.0366   72.1398   17.8087 H   0  0  0  0  0  0  0  0  0  0  0  0
   22.9699   73.0452   20.5194 H   0  0  0  0  0  0  0  0  0  0  0  0
   22.5596   74.0316   19.1221 H   0  0  0  0  0  0  0  0  0  0  0  0
   20.7923   72.3857   20.9490 H   0  0  0  0  0  0  0  0  0  0  0  0
   21.8105   75.4728   20.6668 H   0  0  0  0  0  0  0  0  0  0  0  0
   20.8018   76.8222   22.5035 H   0  0  0  0  0  0  0  0  0  0  0  0
   19.8736   77.2705   21.0082 H   0  0  0  0  0  0  0  0  0  0  0  0
   19.0308   75.3149   23.1933 H   0  0  0  0  0  0  0  0  0  0  0  0
   18.7758   77.6431   23.8281 H   0  0  0  0  0  0  0  0  0  0  0  0
   17.8614   77.9656   22.2985 H   0  0  0  0  0  0  0  0  0  0  0  0
   17.0591   76.0982   24.5585 H   0  0  0  0  0  0  0  0  0  0  0  0
   15.2430   77.9940   23.8950 H   0  0  0  0  0  0  0  0  0  0  0  0
   14.9997   75.6865   23.3538 H   0  0  0  0  0  0  0  0  0  0  0  0
   15.5601   76.7600   22.0032 H   0  0  0  0  0  0  0  0  0  0  0  0
   16.8025   74.1230   22.8918 H   0  0  0  0  0  0  0  0  0  0  0  0
   15.8757   74.4751   21.3591 H   0  0  0  0  0  0  0  0  0  0  0  0
   17.1398   77.1178   20.5178 H   0  0  0  0  0  0  0  0  0  0  0  0
   18.4280   76.3118   19.5598 H   0  0  0  0  0  0  0  0  0  0  0  0
   16.7594   75.6467   19.5598 H   0  0  0  0  0  0  0  0  0  0  0  0
   18.6366   73.2929   21.8215 H   0  0  0  0  0  0  0  0  0  0  0  0
   16.9840   72.7970   20.1967 H   0  0  0  0  0  0  0  0  0  0  0  0
   17.7922   73.9080   18.9815 H   0  0  0  0  0  0  0  0  0  0  0  0
   18.8217   71.2277   19.9873 H   0  0  0  0  0  0  0  0  0  0  0  0
   18.2021   71.6408   18.3332 H   0  0  0  0  0  0  0  0  0  0  0  0
   20.0065   74.4830   18.0391 H   0  0  0  0  0  0  0  0  0  0  0  0
   20.9841   73.3843   17.0077 H   0  0  0  0  0  0  0  0  0  0  0  0
   19.1922   73.2583   17.0077 H   0  0  0  0  0  0  0  0  0  0  0  0
   15.9845   67.8836   17.6436 H   0  0  0  0  0  0  0  0  0  0  0  0
   17.7820   68.2670   15.4559 H   0  0  0  0  0  0  0  0  0  0  0  0
   16.0206   67.9256   15.3689 H   0  0  0  0  0  0  0  0  0  0  0  0
   16.6075   69.6233   15.3689 H   0  0  0  0  0  0  0  0  0  0  0  0
   16.1562   70.0361   18.8554 H   0  0  0  0  0  0  0  0  0  0  0  0
   16.8219   70.7994   17.3718 H   0  0  0  0  0  0  0  0  0  0  0  0
   15.1493   70.1443   17.3718 H   0  0  0  0  0  0  0  0  0  0  0  0
  1  2  1  0
  2  3  1  0
  3  4  1  0
  4  5  2  0
  5  6  1  0
  6  7  1  0
  6  8  1  0
  8  9  1  0
  9 10  1  0
 10 11  1  0
 11 12  1  0
 12 13  2  0
 13 14  1  0
 14 15  1  0
 15 16  1  0
 16 17  1  0
 17 18  1  0
 17 19  1  0
 19 20  1  0
 20 21  1  0
 21 22  1  6
 21 23  1  0
 23 24  1  0
 24 25  1  0
 25 26  1  0
 26 27  1  6
  3 28  1  0
 28 29  1  0
 28 30  1  0
 26  8  1  0
 26 11  1  0
 23 12  1  0
 21 15  1  0
  1 31  1  0
  1 32  1  0
  1 33  1  0
  2 34  1  0
  2 35  1  0
  3 36  1  6
  4 37  1  0
  5 38  1  0
  6 39  1  6
  7 40  1  0
  7 41  1  0
  7 42  1  0
  8 43  1  1
  9 44  1  0
  9 45  1  0
 10 46  1  0
 10 47  1  0
 11 48  1  1
 13 49  1  0
 14 50  1  0
 14 51  1  0
 15 52  1  1
 16 53  1  0
 16 54  1  0
 17 55  1  1
 18 56  1  0
 19 57  1  0
 19 58  1  0
 20 59  1  0
 20 60  1  0
 22 61  1  0
 22 62  1  0
 22 63  1  0
 23 64  1  1
 24 65  1  0
 24 66  1  0
 25 67  1  0
 25 68  1  0
 27 69  1  0
 27 70  1  0
 27 71  1  0
 28 72  1  0
 29 73  1  0
 29 74  1  0
 29 75  1  0
 30 76  1  0
 30 77  1  0
 30 78  1  0
M  END
>  <meeko>  (7) 
{"is_sidechain": [false], "free_energy": -0.743, "intermolecular_energy": -0.771, "internal_energy": 0.091}

$$$$
MOL004355_docked
     RDKit          3D

 78 81  0  0  0  0  0  0  0  0999 V2000
   18.9270   67.2290   15.4280 C   0  0  0  0  0  0  0  0  0  0  0  0
   17.5190   67.8120   15.3830 C   0  0  0  0  0  0  0  0  0  0  0  0
   17.3840   69.1390   16.1640 C   0  0  2  0  0  0  0  0  0  0  0  0
   18.7320   69.8200   16.2900 C   0  0  0  0  0  0  0  0  0  0  0  0
   19.6980   69.4150   17.1310 C   0  0  0  0  0  0  0  0  0  0  0  0
   21.0410   70.1050   17.2730 C   0  0  1  0  0  0  0  0  0  0  0  0
   21.2200   71.0270   16.0660 C   0  0  0  0  0  0  0  0  0  0  0  0
   21.1250   70.8440   18.6340 C   0  0  1  0  0  0  0  0  0  0  0  0
   22.5410   71.4450   18.8800 C   0  0  0  0  0  0  0  0  0  0  0  0
   22.3510   72.7310   19.6930 C   0  0  0  0  0  0  0  0  0  0  0  0
   20.8840   72.6910   20.1180 C   0  0  1  0  0  0  0  0  0  0  0  0
   20.1900   73.9280   20.6380 C   0  0  0  0  0  0  0  0  0  0  0  0
   20.8260   75.0880   20.8880 C   0  0  0  0  0  0  0  0  0  0  0  0
   20.1910   76.2610   21.5750 C   0  0  0  0  0  0  0  0  0  0  0  0
   18.8800   75.8790   22.2790 C   0  0  1  0  0  0  0  0  0  0  0  0
   18.2010   77.1150   22.8830 C   0  0  0  0  0  0  0  0  0  0  0  0
   16.9020   76.7460   23.5960 C   0  0  1  0  0  0  0  0  0  0  0  0
   16.2540   77.9310   24.0470 O   0  0  0  0  0  0  0  0  0  0  0  0
   15.9560   75.9570   22.6970 C   0  0  0  0  0  0  0  0  0  0  0  0
   16.6360   74.7240   22.1000 C   0  0  0  0  0  0  0  0  0  0  0  0
   17.9490   75.0530   21.3380 C   0  0  1  0  0  0  0  0  0  0  0  0
   17.5930   75.8630   20.0620 C   0  0  0  0  0  0  0  0  0  0  0  0
   18.7070   73.7150   20.9710 C   0  0  1  0  0  0  0  0  0  0  0  0
   17.9700   72.8820   19.8860 C   0  0  0  0  0  0  0  0  0  0  0  0
   18.7560   71.6620   19.3780 C   0  0  0  0  0  0  0  0  0  0  0  0
   20.1710   72.0490   18.9030 C   0  0  2  0  0  0  0  0  0  0  0  0
   20.0990   72.9950   17.6800 C   0  0  0  0  0  0  0  0  0  0  0  0
   16.6840   68.9220   17.5390 C   0  0  0  0  0  0  0  0  0  0  0  0
   15.8820   70.1570   17.9660 C   0  0  0  0  0  0  0  0  0  0  0  0
   17.6290   68.5060   18.6710 C   0  0  0  0  0  0  0  0  0  0  0  0
   19.2373   67.1005   16.4755 H   0  0  0  0  0  0  0  0  0  0  0  0
   18.9362   66.2531   14.9205 H   0  0  0  0  0  0  0  0  0  0  0  0
   19.6234   67.9127   14.9205 H   0  0  0  0  0  0  0  0  0  0  0  0
   17.2502   67.9958   14.3323 H   0  0  0  0  0  0  0  0  0  0  0  0
   16.8478   67.0825   15.8598 H   0  0  0  0  0  0  0  0  0  0  0  0
   16.7315   69.8173   15.5946 H   0  0  0  0  0  0  0  0  0  0  0  0
   18.9309   70.6967   15.6561 H   0  0  0  0  0  0  0  0  0  0  0  0
   19.5032   68.5297   17.7541 H   0  0  0  0  0  0  0  0  0  0  0  0
   21.8692   69.3811   17.2792 H   0  0  0  0  0  0  0  0  0  0  0  0
   21.4189   72.0515   16.4135 H   0  0  0  0  0  0  0  0  0  0  0  0
   22.0666   70.6751   15.4582 H   0  0  0  0  0  0  0  0  0  0  0  0
   20.3032   71.0175   15.4582 H   0  0  0  0  0  0  0  0  0  0  0  0
   20.8299   70.0177   19.2974 H   0  0  0  0  0  0  0  0  0  0  0  0
   23.1611   70.7314   19.4424 H   0  0  0  0  0  0  0  0  0  0  0  0
   23.0473   71.6562   17.9265 H   0  0  0  0  0  0  0  0  0  0  0  0
   23.0120   72.7382   20.5722 H   0  0  0  0  0  0  0  0  0  0  0  0
   22.5988   73.6347   19.1169 H   0  0  0  0  0  0  0  0  0  0  0  0
   20.8312   72.1266   21.0607 H   0  0  0  0  0  0  0  0  0  0  0  0
   21.8747   75.1814   20.5693 H   0  0  0  0  0  0  0  0  0  0  0  0
   20.8933   76.6563   22.3236 H   0  0  0  0  0  0  0  0  0  0  0  0
   19.9567   77.0154   20.8095 H   0  0  0  0  0  0  0  0  0  0  0  0
   19.1153   75.2148   23.1237 H   0  0  0  0  0  0  0  0  0  0  0  0
   18.8859   77.5817   23.6063 H   0  0  0  0  0  0  0  0  0  0  0  0
   17.9611   77.8115   22.0661 H   0  0  0  0  0  0  0  0  0  0  0  0
   17.1616   76.1034   24.4502 H   0  0  0  0  0  0  0  0  0  0  0  0
   16.8340   78.4010   24.6670 H   0  0  0  0  0  0  0  0  0  0  0  0
   15.0884   75.6328   23.2905 H   0  0  0  0  0  0  0  0  0  0  0  0
   15.6463   76.6113   21.8688 H   0  0  0  0  0  0  0  0  0  0  0  0
   16.8722   74.0261   22.9168 H   0  0  0  0  0  0  0  0  0  0  0  0
   15.9372   74.2885   21.3706 H   0  0  0  0  0  0  0  0  0  0  0  0
   17.1660   76.8345   20.3516 H   0  0  0  0  0  0  0  0  0  0  0  0
   18.5026   76.0255   19.4652 H   0  0  0  0  0  0  0  0  0  0  0  0
   16.8582   75.3028   19.4652 H   0  0  0  0  0  0  0  0  0  0  0  0
   18.6902   73.1109   21.8901 H   0  0  0  0  0  0  0  0  0  0  0  0
   17.0202   72.5262   20.3118 H   0  0  0  0  0  0  0  0  0  0  0  0
   17.8302   73.5472   19.0212 H   0  0  0  0  0  0  0  0  0  0  0  0
   18.8424   70.9293   20.1939 H   0  0  0  0  0  0  0  0  0  0  0  0
   18.2121   71.2377   18.5212 H   0  0  0  0  0  0  0  0  0  0  0  0
   20.0198   74.0362   18.0260 H   0  0  0  0  0  0  0  0  0  0  0  0
   21.0086   72.8787   17.0724 H   0  0  0  0  0  0  0  0  0  0  0  0
   19.2175   72.7424   17.0724 H   0  0  0  0  0  0  0  0  0  0  0  0
   16.0017   68.0760   17.3695 H   0  0  0  0  0  0  0  0  0  0  0  0
   15.8475   70.2101   19.0642 H   0  0  0  0  0  0  0  0  0  0  0  0
   16.3648   71.0626   17.5701 H   0  0  0  0  0  0  0  0  0  0  0  0
   14.8583   70.0843   17.5701 H   0  0  0  0  0  0  0  0  0  0  0  0
   17.1539   68.7152   19.6408 H   0  0  0  0  0  0  0  0  0  0  0  0
   17.8439   67.4301   18.5925 H   0  0  0  0  0  0  0  0  0  0  0  0
   18.5677   69.0741   18.5925 H   0  0  0  0  0  0  0  0  0  0  0  0
  1  2  1  0
  2  3  1  0
  3  4  1  0
  4  5  2  0
  5  6  1  0
  6  7  1  0
  6  8  1  0
  8  9  1  0
  9 10  1  0
 10 11  1  0
 11 12  1  0
 12 13  2  0
 13 14  1  0
 14 15  1  0
 15 16  1  0
 16 17  1  0
 17 18  1  0
 17 19  1  0
 19 20  1  0
 20 21  1  0
 21 22  1  6
 21 23  1  0
 23 24  1  0
 24 25  1  0
 25 26  1  0
 26 27  1  6
  3 28  1  0
 28 29  1  0
 28 30  1  0
 26  8  1  0
 26 11  1  0
 23 12  1  0
 21 15  1  0
  1 31  1  0
  1 32  1  0
  1 33  1  0
  2 34  1  0
  2 35  1  0
  3 36  1  6
  4 37  1  0
  5 38  1  0
  6 39  1  1
  7 40  1  0
  7 41  1  0
  7 42  1  0
  8 43  1  1
  9 44  1  0
  9 45  1  0
 10 46  1  0
 10 47  1  0
 11 48  1  1
 13 49  1  0
 14 50  1  0
 14 51  1  0
 15 52  1  1
 16 53  1  0
 16 54  1  0
 17 55  1  1
 18 56  1  0
 19 57  1  0
 19 58  1  0
 20 59  1  0
 20 60  1  0
 22 61  1  0
 22 62  1  0
 22 63  1  0
 23 64  1  1
 24 65  1  0
 24 66  1  0
 25 67  1  0
 25 68  1  0
 27 69  1  0
 27 70  1  0
 27 71  1  0
 28 72  1  0
 29 73  1  0
 29 74  1  0
 29 75  1  0
 30 76  1  0
 30 77  1  0
 30 78  1  0
M  END
>  <meeko>  (8) 
{"is_sidechain": [false], "free_energy": -0.388, "intermolecular_energy": -1.132, "internal_energy": 0.922}

$$$$
MOL004355_docked
     RDKit          3D

 78 81  0  0  0  0  0  0  0  0999 V2000
   17.0280   69.8450   18.6670 C   0  0  0  0  0  0  0  0  0  0  0  0
   17.3030   68.6490   17.7620 C   0  0  0  0  0  0  0  0  0  0  0  0
   18.8050   68.4450   17.4630 C   0  0  2  0  0  0  0  0  0  0  0  0
   19.6110   69.6270   17.9610 C   0  0  0  0  0  0  0  0  0  0  0  0
   20.9030   69.8330   17.6560 C   0  0  0  0  0  0  0  0  0  0  0  0
   21.7180   71.0060   18.1680 C   0  0  1  0  0  0  0  0  0  0  0  0
   22.9370   71.1570   17.2590 C   0  0  0  0  0  0  0  0  0  0  0  0
   20.8370   72.2810   18.2410 C   0  0  1  0  0  0  0  0  0  0  0  0
   19.6360   72.2120   17.2520 C   0  0  0  0  0  0  0  0  0  0  0  0
   18.4730   72.9730   17.8990 C   0  0  0  0  0  0  0  0  0  0  0  0
   19.1080   73.6770   19.0960 C   0  0  1  0  0  0  0  0  0  0  0  0
   18.2560   74.2520   20.2040 C   0  0  0  0  0  0  0  0  0  0  0  0
   16.9120   74.3080   20.1550 C   0  0  0  0  0  0  0  0  0  0  0  0
   16.0670   75.0380   21.1560 C   0  0  0  0  0  0  0  0  0  0  0  0
   16.8950   76.0060   22.0170 C   0  0  1  0  0  0  0  0  0  0  0  0
   16.0250   76.6600   23.0970 C   0  0  0  0  0  0  0  0  0  0  0  0
   16.8340   77.6320   23.9520 C   0  0  1  0  0  0  0  0  0  0  0  0
   16.0180   78.1350   25.0050 O   0  0  0  0  0  0  0  0  0  0  0  0
   18.0820   76.9810   24.5400 C   0  0  0  0  0  0  0  0  0  0  0  0
   18.9480   76.3340   23.4580 C   0  0  0  0  0  0  0  0  0  0  0  0
   18.1740   75.3120   22.5810 C   0  0  1  0  0  0  0  0  0  0  0  0
   17.7980   74.0870   23.4570 C   0  0  0  0  0  0  0  0  0  0  0  0
   19.0650   74.8800   21.3470 C   0  0  1  0  0  0  0  0  0  0  0  0
   20.2830   74.0090   21.7600 C   0  0  0  0  0  0  0  0  0  0  0  0
   21.0770   73.4260   20.5780 C   0  0  0  0  0  0  0  0  0  0  0  0
   20.1660   72.6630   19.5960 C   0  0  2  0  0  0  0  0  0  0  0  0
   19.5350   71.4270   20.2810 C   0  0  0  0  0  0  0  0  0  0  0  0
   19.0480   68.1400   15.9540 C   0  0  0  0  0  0  0  0  0  0  0  0
   17.8880   68.6380   15.0830 C   0  0  0  0  0  0  0  0  0  0  0  0
   19.3260   66.6660   15.6440 C   0  0  0  0  0  0  0  0  0  0  0  0
   17.0998   69.5327   19.7193 H   0  0  0  0  0  0  0  0  0  0  0  0
   17.7682   70.6338   18.4673 H   0  0  0  0  0  0  0  0  0  0  0  0
   16.0176   70.2313   18.4673 H   0  0  0  0  0  0  0  0  0  0  0  0
   16.9181   67.7431   18.2531 H   0  0  0  0  0  0  0  0  0  0  0  0
   16.8019   68.8432   16.8022 H   0  0  0  0  0  0  0  0  0  0  0  0
   19.1560   67.5599   18.0138 H   0  0  0  0  0  0  0  0  0  0  0  0
   19.1090   70.3594   18.6103 H   0  0  0  0  0  0  0  0  0  0  0  0
   21.4001   69.1075   16.9952 H   0  0  0  0  0  0  0  0  0  0  0  0
   22.0743   70.8349   19.1945 H   0  0  0  0  0  0  0  0  0  0  0  0
   23.8417   71.2691   17.8745 H   0  0  0  0  0  0  0  0  0  0  0  0
   23.0338   70.2640   16.6241 H   0  0  0  0  0  0  0  0  0  0  0  0
   22.8130   72.0466   16.6241 H   0  0  0  0  0  0  0  0  0  0  0  0
   21.6057   73.0346   18.0145 H   0  0  0  0  0  0  0  0  0  0  0  0
   19.9080   72.6816   16.2952 H   0  0  0  0  0  0  0  0  0  0  0  0
   19.3555   71.1677   17.0499 H   0  0  0  0  0  0  0  0  0  0  0  0
   18.0465   73.7046   17.1969 H   0  0  0  0  0  0  0  0  0  0  0  0
   17.6448   72.3101   18.1899 H   0  0  0  0  0  0  0  0  0  0  0  0
   19.4968   74.6421   18.7389 H   0  0  0  0  0  0  0  0  0  0  0  0
   16.4027   73.7868   19.3310 H   0  0  0  0  0  0  0  0  0  0  0  0
   15.2969   75.6113   20.6190 H   0  0  0  0  0  0  0  0  0  0  0  0
   15.6151   74.2915   21.8257 H   0  0  0  0  0  0  0  0  0  0  0  0
   17.2570   76.8247   21.3777 H   0  0  0  0  0  0  0  0  0  0  0  0
   15.2042   77.2083   22.6116 H   0  0  0  0  0  0  0  0  0  0  0  0
   15.6325   75.8678   23.7515 H   0  0  0  0  0  0  0  0  0  0  0  0
   17.1635   78.4534   23.2988 H   0  0  0  0  0  0  0  0  0  0  0  0
   15.5280   77.4020   25.4120 H   0  0  0  0  0  0  0  0  0  0  0  0
   18.6743   77.7497   25.0578 H   0  0  0  0  0  0  0  0  0  0  0  0
   17.7607   76.1934   25.2374 H   0  0  0  0  0  0  0  0  0  0  0  0
   19.3413   77.1271   22.8050 H   0  0  0  0  0  0  0  0  0  0  0  0
   19.7504   75.7823   23.9696 H   0  0  0  0  0  0  0  0  0  0  0  0
   17.8809   74.3572   24.5201 H   0  0  0  0  0  0  0  0  0  0  0  0
   16.7647   73.7814   23.2359 H   0  0  0  0  0  0  0  0  0  0  0  0
   18.4819   73.2543   23.2359 H   0  0  0  0  0  0  0  0  0  0  0  0
   19.4764   75.8165   20.9424 H   0  0  0  0  0  0  0  0  0  0  0  0
   20.9643   74.6317   22.3584 H   0  0  0  0  0  0  0  0  0  0  0  0
   19.8809   73.1526   22.3211 H   0  0  0  0  0  0  0  0  0  0  0  0
   21.5699   74.2491   20.0399 H   0  0  0  0  0  0  0  0  0  0  0  0
   21.8160   72.7170   20.9795 H   0  0  0  0  0  0  0  0  0  0  0  0
   19.5942   71.5430   21.3733 H   0  0  0  0  0  0  0  0  0  0  0  0
   18.4812   71.3381   19.9783 H   0  0  0  0  0  0  0  0  0  0  0  0
   20.0811   70.5214   19.9783 H   0  0  0  0  0  0  0  0  0  0  0  0
   19.9650   68.6946   15.7057 H   0  0  0  0  0  0  0  0  0  0  0  0
   17.0695   68.9894   15.7284 H   0  0  0  0  0  0  0  0  0  0  0  0
   18.2356   69.4662   14.4480 H   0  0  0  0  0  0  0  0  0  0  0  0
   17.5270   67.8156   14.4480 H   0  0  0  0  0  0  0  0  0  0  0  0
   19.4315   66.1069   16.5854 H   0  0  0  0  0  0  0  0  0  0  0  0
   18.4905   66.2498   15.0620 H   0  0  0  0  0  0  0  0  0  0  0  0
   20.2557   66.5827   15.0620 H   0  0  0  0  0  0  0  0  0  0  0  0
  1  2  1  0
  2  3  1  0
  3  4  1  0
  4  5  2  0
  5  6  1  0
  6  7  1  0
  6  8  1  0
  8  9  1  0
  9 10  1  0
 10 11  1  0
 11 12  1  0
 12 13  2  0
 13 14  1  0
 14 15  1  0
 15 16  1  0
 16 17  1  0
 17 18  1  0
 17 19  1  0
 19 20  1  0
 20 21  1  0
 21 22  1  1
 21 23  1  0
 23 24  1  0
 24 25  1  0
 25 26  1  0
 26 27  1  1
  3 28  1  0
 28 29  1  0
 28 30  1  0
 26  8  1  0
 26 11  1  0
 23 12  1  0
 21 15  1  0
  1 31  1  0
  1 32  1  0
  1 33  1  0
  2 34  1  0
  2 35  1  0
  3 36  1  1
  4 37  1  0
  5 38  1  0
  6 39  1  1
  7 40  1  0
  7 41  1  0
  7 42  1  0
  8 43  1  6
  9 44  1  0
  9 45  1  0
 10 46  1  0
 10 47  1  0
 11 48  1  6
 13 49  1  0
 14 50  1  0
 14 51  1  0
 15 52  1  6
 16 53  1  0
 16 54  1  0
 17 55  1  6
 18 56  1  0
 19 57  1  0
 19 58  1  0
 20 59  1  0
 20 60  1  0
 22 61  1  0
 22 62  1  0
 22 63  1  0
 23 64  1  6
 24 65  1  0
 24 66  1  0
 25 67  1  0
 25 68  1  0
 27 69  1  0
 27 70  1  0
 27 71  1  0
 28 72  1  0
 29 73  1  0
 29 74  1  0
 29 75  1  0
 30 76  1  0
 30 77  1  0
 30 78  1  0
M  END
>  <meeko>  (9) 
{"is_sidechain": [false], "free_energy": -0.36, "intermolecular_energy": -0.358, "internal_energy": 0.185}

$$$$
MOL004355_docked
     RDKit          3D

 78 81  0  0  0  0  0  0  0  0999 V2000
   21.3120   76.1490   21.6820 C   0  0  0  0  0  0  0  0  0  0  0  0
   19.8230   75.8870   21.4880 C   0  0  0  0  0  0  0  0  0  0  0  0
   18.9830   76.1910   22.7500 C   0  0  2  0  0  0  0  0  0  0  0  0
   18.8770   74.9600   23.6270 C   0  0  0  0  0  0  0  0  0  0  0  0
   19.3690   73.7560   23.2890 C   0  0  0  0  0  0  0  0  0  0  0  0
   19.2490   72.5180   24.1560 C   0  0  1  0  0  0  0  0  0  0  0  0
   18.3700   72.8730   25.3550 C   0  0  0  0  0  0  0  0  0  0  0  0
   18.7060   71.3280   23.3210 C   0  0  1  0  0  0  0  0  0  0  0  0
   17.2120   71.0310   23.6410 C   0  0  0  0  0  0  0  0  0  0  0  0
   16.5670   70.5160   22.3500 C   0  0  0  0  0  0  0  0  0  0  0  0
   17.7470   70.2770   21.4110 C   0  0  1  0  0  0  0  0  0  0  0  0
   17.5390   70.1000   19.9260 C   0  0  0  0  0  0  0  0  0  0  0  0
   16.3250   70.0040   19.3510 C   0  0  0  0  0  0  0  0  0  0  0  0
   16.1050   69.6450   17.9120 C   0  0  0  0  0  0  0  0  0  0  0  0
   17.3650   69.0480   17.2650 C   0  0  1  0  0  0  0  0  0  0  0  0
   17.1420   68.7870   15.7700 C   0  0  0  0  0  0  0  0  0  0  0  0
   18.3830   68.1830   15.1180 C   0  0  1  0  0  0  0  0  0  0  0  0
   18.1720   68.0560   13.7160 O   0  0  0  0  0  0  0  0  0  0  0  0
   19.6330   69.0190   15.3730 C   0  0  0  0  0  0  0  0  0  0  0  0
   19.8520   69.2740   16.8650 C   0  0  0  0  0  0  0  0  0  0  0  0
   18.6250   69.9180   17.5660 C   0  0  1  0  0  0  0  0  0  0  0  0
   18.4430   71.3610   17.0250 C   0  0  0  0  0  0  0  0  0  0  0  0
   18.8410   69.9180   19.1330 C   0  0  1  0  0  0  0  0  0  0  0  0
   19.9540   70.9010   19.5880 C   0  0  0  0  0  0  0  0  0  0  0  0
   20.0780   71.0590   21.1120 C   0  0  0  0  0  0  0  0  0  0  0  0
   18.7290   71.4210   21.7640 C   0  0  2  0  0  0  0  0  0  0  0  0
   18.2380   72.8050   21.2740 C   0  0  0  0  0  0  0  0  0  0  0  0
   17.5950   76.7910   22.3780 C   0  0  0  0  0  0  0  0  0  0  0  0
   16.8120   77.2210   23.6260 C   0  0  0  0  0  0  0  0  0  0  0  0
   16.7210   75.8760   21.5140 C   0  0  0  0  0  0  0  0  0  0  0  0
   21.5402   76.1892   22.7573 H   0  0  0  0  0  0  0  0  0  0  0  0
   21.8908   75.3389   21.2143 H   0  0  0  0  0  0  0  0  0  0  0  0
   21.5795   77.1080   21.2143 H   0  0  0  0  0  0  0  0  0  0  0  0
   19.4605   76.5209   20.6654 H   0  0  0  0  0  0  0  0  0  0  0  0
   19.7051   74.8161   21.2663 H   0  0  0  0  0  0  0  0  0  0  0  0
   19.5001   76.9626   23.3392 H   0  0  0  0  0  0  0  0  0  0  0  0
   18.3676   75.0575   24.5970 H   0  0  0  0  0  0  0  0  0  0  0  0
   19.8904   73.6630   22.3249 H   0  0  0  0  0  0  0  0  0  0  0  0
   20.2293   72.1912   24.5332 H   0  0  0  0  0  0  0  0  0  0  0  0
   18.9135   72.6535   26.2858 H   0  0  0  0  0  0  0  0  0  0  0  0
   18.1183   73.9433   25.3210 H   0  0  0  0  0  0  0  0  0  0  0  0
   17.4456   72.2777   25.3210 H   0  0  0  0  0  0  0  0  0  0  0  0
   19.4277   70.5573   23.6295 H   0  0  0  0  0  0  0  0  0  0  0  0
   17.1398   70.2672   24.4293 H   0  0  0  0  0  0  0  0  0  0  0  0
   16.7012   71.9371   23.9987 H   0  0  0  0  0  0  0  0  0  0  0  0
   16.0192   69.5801   22.5341 H   0  0  0  0  0  0  0  0  0  0  0  0
   15.8342   71.2231   21.9341 H   0  0  0  0  0  0  0  0  0  0  0  0
   18.1100   69.2552   21.5956 H   0  0  0  0  0  0  0  0  0  0  0  0
   15.4409   70.2010   19.9751 H   0  0  0  0  0  0  0  0  0  0  0  0
   15.2916   68.9070   17.8511 H   0  0  0  0  0  0  0  0  0  0  0  0
   15.8498   70.5667   17.3685 H   0  0  0  0  0  0  0  0  0  0  0  0
   17.5644   68.0671   17.7212 H   0  0  0  0  0  0  0  0  0  0  0  0
   16.2997   68.0897   15.6503 H   0  0  0  0  0  0  0  0  0  0  0  0
   16.9266   69.7478   15.2796 H   0  0  0  0  0  0  0  0  0  0  0  0
   18.5470   67.1937   15.5702 H   0  0  0  0  0  0  0  0  0  0  0  0
   17.6230   67.2750   13.5410 H   0  0  0  0  0  0  0  0  0  0  0  0
   20.5066   68.4847   14.9712 H   0  0  0  0  0  0  0  0  0  0  0  0
   19.5009   69.9914   14.8760 H   0  0  0  0  0  0  0  0  0  0  0  0
   20.0693   68.3134   17.3549 H   0  0  0  0  0  0  0  0  0  0  0  0
   20.6874   69.9840   16.9544 H   0  0  0  0  0  0  0  0  0  0  0  0
   18.3548   72.0607   17.8692 H   0  0  0  0  0  0  0  0  0  0  0  0
   19.3137   71.6350   16.4112 H   0  0  0  0  0  0  0  0  0  0  0  0
   17.5315   71.4102   16.4112 H   0  0  0  0  0  0  0  0  0  0  0  0
   19.2013   68.9076   19.3766 H   0  0  0  0  0  0  0  0  0  0  0  0
   20.9161   70.5343   19.2008 H   0  0  0  0  0  0  0  0  0  0  0  0
   19.6807   71.8899   19.1912 H   0  0  0  0  0  0  0  0  0  0  0  0
   20.4368   70.1112   21.5398 H   0  0  0  0  0  0  0  0  0  0  0  0
   20.7846   71.8776   21.3135 H   0  0  0  0  0  0  0  0  0  0  0  0
   18.0120   73.4422   22.1417 H   0  0  0  0  0  0  0  0  0  0  0  0
   19.0230   73.2784   20.6661 H   0  0  0  0  0  0  0  0  0  0  0  0
   17.3301   72.6778   20.6661 H   0  0  0  0  0  0  0  0  0  0  0  0
   17.8327   77.6729   21.7650 H   0  0  0  0  0  0  0  0  0  0  0  0
   17.3641   76.9178   24.5278 H   0  0  0  0  0  0  0  0  0  0  0  0
   16.6877   78.3139   23.6223 H   0  0  0  0  0  0  0  0  0  0  0  0
   15.8230   76.7395   23.6223 H   0  0  0  0  0  0  0  0  0  0  0  0
   16.1079   75.2341   22.1637 H   0  0  0  0  0  0  0  0  0  0  0  0
   16.0643   76.4888   20.8790 H   0  0  0  0  0  0  0  0  0  0  0  0
   17.3633   75.2481   20.8790 H   0  0  0  0  0  0  0  0  0  0  0  0
  1  2  1  0
  2  3  1  0
  3  4  1  0
  4  5  2  0
  5  6  1  0
  6  7  1  0
  6  8  1  0
  8  9  1  0
  9 10  1  0
 10 11  1  0
 11 12  1  0
 12 13  2  0
 13 14  1  0
 14 15  1  0
 15 16  1  0
 16 17  1  0
 17 18  1  0
 17 19  1  0
 19 20  1  0
 20 21  1  0
 21 22  1  6
 21 23  1  0
 23 24  1  0
 24 25  1  0
 25 26  1  0
 26 27  1  1
  3 28  1  0
 28 29  1  0
 28 30  1  0
 26  8  1  0
 26 11  1  0
 23 12  1  0
 21 15  1  0
  1 31  1  0
  1 32  1  0
  1 33  1  0
  2 34  1  0
  2 35  1  0
  3 36  1  1
  4 37  1  0
  5 38  1  0
  6 39  1  1
  7 40  1  0
  7 41  1  0
  7 42  1  0
  8 43  1  6
  9 44  1  0
  9 45  1  0
 10 46  1  0
 10 47  1  0
 11 48  1  1
 13 49  1  0
 14 50  1  0
 14 51  1  0
 15 52  1  1
 16 53  1  0
 16 54  1  0
 17 55  1  1
 18 56  1  0
 19 57  1  0
 19 58  1  0
 20 59  1  0
 20 60  1  0
 22 61  1  0
 22 62  1  0
 22 63  1  0
 23 64  1  1
 24 65  1  0
 24 66  1  0
 25 67  1  0
 25 68  1  0
 27 69  1  0
 27 70  1  0
 27 71  1  0
 28 72  1  0
 29 73  1  0
 29 74  1  0
 29 75  1  0
 30 76  1  0
 30 77  1  0
 30 78  1  0
M  END
>  <meeko>  (10) 
{"is_sidechain": [false], "free_energy": 1.614, "intermolecular_energy": 2.113, "internal_energy": 0.322}

$$$$
MOL004355_docked
     RDKit          3D

 78 81  0  0  0  0  0  0  0  0999 V2000
   14.4660   82.9490   24.2480 C   0  0  0  0  0  0  0  0  0  0  0  0
   15.4310   81.9240   24.8340 C   0  0  0  0  0  0  0  0  0  0  0  0
   16.3950   81.3260   23.7840 C   0  0  2  0  0  0  0  0  0  0  0  0
   16.6740   79.8680   24.0880 C   0  0  0  0  0  0  0  0  0  0  0  0
   17.1220   78.9870   23.1780 C   0  0  0  0  0  0  0  0  0  0  0  0
   17.3850   77.5230   23.4750 C   0  0  1  0  0  0  0  0  0  0  0  0
   16.0430   76.8650   23.7960 C   0  0  0  0  0  0  0  0  0  0  0  0
   18.1310   76.8600   22.2870 C   0  0  1  0  0  0  0  0  0  0  0  0
   19.6770   76.9230   22.4670 C   0  0  0  0  0  0  0  0  0  0  0  0
   20.2590   75.6620   21.8190 C   0  0  0  0  0  0  0  0  0  0  0  0
   19.0820   75.0540   21.0590 C   0  0  1  0  0  0  0  0  0  0  0  0
   19.1260   73.6270   20.5670 C   0  0  0  0  0  0  0  0  0  0  0  0
   20.2220   72.8490   20.6360 C   0  0  0  0  0  0  0  0  0  0  0  0
   20.3360   71.5010   19.9890 C   0  0  0  0  0  0  0  0  0  0  0  0
   19.2300   71.2630   18.9490 C   0  0  1  0  0  0  0  0  0  0  0  0
   19.3100   69.8410   18.3800 C   0  0  0  0  0  0  0  0  0  0  0  0
   18.2220   69.5950   17.3370 C   0  0  1  0  0  0  0  0  0  0  0  0
   18.2650   68.2370   16.9140 O   0  0  0  0  0  0  0  0  0  0  0  0
   16.8300   69.9210   17.8690 C   0  0  0  0  0  0  0  0  0  0  0  0
   16.7550   71.3410   18.4320 C   0  0  0  0  0  0  0  0  0  0  0  0
   17.8250   71.6280   19.5210 C   0  0  1  0  0  0  0  0  0  0  0  0
   17.4990   70.7750   20.7770 C   0  0  0  0  0  0  0  0  0  0  0  0
   17.8370   73.1720   19.8670 C   0  0  1  0  0  0  0  0  0  0  0  0
   16.5590   73.6300   20.6210 C   0  0  0  0  0  0  0  0  0  0  0  0
   16.6060   75.0820   21.1270 C   0  0  0  0  0  0  0  0  0  0  0  0
   17.8670   75.3550   21.9700 C   0  0  2  0  0  0  0  0  0  0  0  0
   17.8590   74.5000   23.2610 C   0  0  0  0  0  0  0  0  0  0  0  0
   17.6930   82.1770   23.6550 C   0  0  0  0  0  0  0  0  0  0  0  0
   18.0260   82.9020   24.9650 C   0  0  0  0  0  0  0  0  0  0  0  0
   17.6770   83.1840   22.5010 C   0  0  0  0  0  0  0  0  0  0  0  0
   13.9608   83.4856   25.0645 H   0  0  0  0  0  0  0  0  0  0  0  0
   15.0245   83.6660   23.6284 H   0  0  0  0  0  0  0  0  0  0  0  0
   13.7166   82.4347   23.6284 H   0  0  0  0  0  0  0  0  0  0  0  0
   16.0277   82.4136   25.6177 H   0  0  0  0  0  0  0  0  0  0  0  0
   14.8264   81.0958   25.2321 H   0  0  0  0  0  0  0  0  0  0  0  0
   15.9079   81.3618   22.7984 H   0  0  0  0  0  0  0  0  0  0  0  0
   16.4996   79.5101   25.1134 H   0  0  0  0  0  0  0  0  0  0  0  0
   17.3093   79.3491   22.1563 H   0  0  0  0  0  0  0  0  0  0  0  0
   18.0458   77.3985   24.3455 H   0  0  0  0  0  0  0  0  0  0  0  0
   15.9166   76.8030   24.8870 H   0  0  0  0  0  0  0  0  0  0  0  0
   15.2279   77.4657   23.3660 H   0  0  0  0  0  0  0  0  0  0  0  0
   16.0188   75.8528   23.3660 H   0  0  0  0  0  0  0  0  0  0  0  0
   17.7159   77.4619   21.4652 H   0  0  0  0  0  0  0  0  0  0  0  0
   20.0779   77.8203   21.9729 H   0  0  0  0  0  0  0  0  0  0  0  0
   19.9449   76.9743   23.5327 H   0  0  0  0  0  0  0  0  0  0  0  0
   21.0771   75.9194   21.1301 H   0  0  0  0  0  0  0  0  0  0  0  0
   20.6874   74.9682   22.5573 H   0  0  0  0  0  0  0  0  0  0  0  0
   19.0623   75.5166   20.0612 H   0  0  0  0  0  0  0  0  0  0  0  0
   21.0872   73.2250   21.2017 H   0  0  0  0  0  0  0  0  0  0  0  0
   21.3136   71.4288   19.4899 H   0  0  0  0  0  0  0  0  0  0  0  0
   20.2315   70.7384   20.7748 H   0  0  0  0  0  0  0  0  0  0  0  0
   19.3924   71.9430   18.0997 H   0  0  0  0  0  0  0  0  0  0  0  0
   20.2945   69.6985   17.9104 H   0  0  0  0  0  0  0  0  0  0  0  0
   19.1643   69.1294   19.2061 H   0  0  0  0  0  0  0  0  0  0  0  0
   18.4185   70.2654   16.4873 H   0  0  0  0  0  0  0  0  0  0  0  0
   18.2530   68.1990   15.9440 H   0  0  0  0  0  0  0  0  0  0  0  0
   16.1037   69.8245   17.0485 H   0  0  0  0  0  0  0  0  0  0  0  0
   16.6021   69.2179   18.6837 H   0  0  0  0  0  0  0  0  0  0  0  0
   16.8988   72.0523   17.6053 H   0  0  0  0  0  0  0  0  0  0  0  0
   15.7691   71.4512   18.9072 H   0  0  0  0  0  0  0  0  0  0  0  0
   17.7215   71.3571   21.6834 H   0  0  0  0  0  0  0  0  0  0  0  0
   16.4333   70.5025   20.7686 H   0  0  0  0  0  0  0  0  0  0  0  0
   18.1113   69.8612   20.7686 H   0  0  0  0  0  0  0  0  0  0  0  0
   17.8252   73.6887   18.8960 H   0  0  0  0  0  0  0  0  0  0  0  0
   15.7025   73.5312   19.9379 H   0  0  0  0  0  0  0  0  0  0  0  0
   16.4733   72.9898   21.5114 H   0  0  0  0  0  0  0  0  0  0  0  0
   16.6028   75.7608   20.2614 H   0  0  0  0  0  0  0  0  0  0  0  0
   15.7258   75.2499   21.7650 H   0  0  0  0  0  0  0  0  0  0  0  0
   17.8652   75.1622   24.1394 H   0  0  0  0  0  0  0  0  0  0  0  0
   16.9550   73.8736   23.2804 H   0  0  0  0  0  0  0  0  0  0  0  0
   18.7512   73.8568   23.2804 H   0  0  0  0  0  0  0  0  0  0  0  0
   18.4801   81.4439   23.4246 H   0  0  0  0  0  0  0  0  0  0  0  0
   17.7359   82.2704   25.8176 H   0  0  0  0  0  0  0  0  0  0  0  0
   19.1066   83.1029   25.0084 H   0  0  0  0  0  0  0  0  0  0  0  0
   17.4743   83.8526   25.0084 H   0  0  0  0  0  0  0  0  0  0  0  0
   17.6608   84.2063   22.9067 H   0  0  0  0  0  0  0  0  0  0  0  0
   18.5774   83.0487   21.8838 H   0  0  0  0  0  0  0  0  0  0  0  0
   16.7813   83.0202   21.8838 H   0  0  0  0  0  0  0  0  0  0  0  0
  1  2  1  0
  2  3  1  0
  3  4  1  0
  4  5  2  0
  5  6  1  0
  6  7  1  0
  6  8  1  0
  8  9  1  0
  9 10  1  0
 10 11  1  0
 11 12  1  0
 12 13  2  0
 13 14  1  0
 14 15  1  0
 15 16  1  0
 16 17  1  0
 17 18  1  0
 17 19  1  0
 19 20  1  0
 20 21  1  0
 21 22  1  1
 21 23  1  0
 23 24  1  0
 24 25  1  0
 25 26  1  0
 26 27  1  1
  3 28  1  0
 28 29  1  0
 28 30  1  0
 26  8  1  0
 26 11  1  0
 23 12  1  0
 21 15  1  0
  1 31  1  0
  1 32  1  0
  1 33  1  0
  2 34  1  0
  2 35  1  0
  3 36  1  6
  4 37  1  0
  5 38  1  0
  6 39  1  1
  7 40  1  0
  7 41  1  0
  7 42  1  0
  8 43  1  6
  9 44  1  0
  9 45  1  0
 10 46  1  0
 10 47  1  0
 11 48  1  6
 13 49  1  0
 14 50  1  0
 14 51  1  0
 15 52  1  6
 16 53  1  0
 16 54  1  0
 17 55  1  6
 18 56  1  0
 19 57  1  0
 19 58  1  0
 20 59  1  0
 20 60  1  0
 22 61  1  0
 22 62  1  0
 22 63  1  0
 23 64  1  6
 24 65  1  0
 24 66  1  0
 25 67  1  0
 25 68  1  0
 27 69  1  0
 27 70  1  0
 27 71  1  0
 28 72  1  0
 29 73  1  0
 29 74  1  0
 29 75  1  0
 30 76  1  0
 30 77  1  0
 30 78  1  0
M  END
>  <meeko>  (11) 
{"is_sidechain": [false], "free_energy": 1.677, "intermolecular_energy": 2.61, "internal_energy": -0.091}

$$$$
MOL004355_docked
     RDKit          3D

 78 81  0  0  0  0  0  0  0  0999 V2000
   19.5210   65.2060   15.8420 C   0  0  0  0  0  0  0  0  0  0  0  0
   19.1950   66.3670   16.7750 C   0  0  0  0  0  0  0  0  0  0  0  0
   19.1030   67.7270   16.0460 C   0  0  2  0  0  0  0  0  0  0  0  0
   19.4950   68.8560   16.9760 C   0  0  0  0  0  0  0  0  0  0  0  0
   20.5080   69.7050   16.7370 C   0  0  0  0  0  0  0  0  0  0  0  0
   20.9140   70.8260   17.6740 C   0  0  1  0  0  0  0  0  0  0  0  0
   21.0510   72.1010   16.8430 C   0  0  0  0  0  0  0  0  0  0  0  0
   19.8930   70.9510   18.8360 C   0  0  1  0  0  0  0  0  0  0  0  0
   20.1240   69.8650   19.9280 C   0  0  0  0  0  0  0  0  0  0  0  0
   19.7310   70.4870   21.2730 C   0  0  0  0  0  0  0  0  0  0  0  0
   19.0400   71.7950   20.8930 C   0  0  1  0  0  0  0  0  0  0  0  0
   18.8070   72.8800   21.9180 C   0  0  0  0  0  0  0  0  0  0  0  0
   19.0570   72.7270   23.2320 C   0  0  0  0  0  0  0  0  0  0  0  0
   18.6610   73.7230   24.2820 C   0  0  0  0  0  0  0  0  0  0  0  0
   17.6340   74.7380   23.7580 C   0  0  1  0  0  0  0  0  0  0  0  0
   17.3260   75.8030   24.8180 C   0  0  0  0  0  0  0  0  0  0  0  0
   16.2970   76.8120   24.3130 C   0  0  1  0  0  0  0  0  0  0  0  0
   16.1200   77.8390   25.2840 O   0  0  0  0  0  0  0  0  0  0  0  0
   16.7050   77.4330   22.9810 C   0  0  0  0  0  0  0  0  0  0  0  0
   17.0080   76.3670   21.9270 C   0  0  0  0  0  0  0  0  0  0  0  0
   18.0740   75.3340   22.3850 C   0  0  1  0  0  0  0  0  0  0  0  0
   19.4440   76.0530   22.5060 C   0  0  0  0  0  0  0  0  0  0  0  0
   18.1450   74.1410   21.3480 C   0  0  1  0  0  0  0  0  0  0  0  0
   18.7530   74.5650   19.9830 C   0  0  0  0  0  0  0  0  0  0  0  0
   18.9980   73.4010   19.0080 C   0  0  0  0  0  0  0  0  0  0  0  0
   19.8330   72.2770   19.6540 C   0  0  2  0  0  0  0  0  0  0  0  0
   21.2520   72.7850   20.0100 C   0  0  0  0  0  0  0  0  0  0  0  0
   17.7000   67.9320   15.4010 C   0  0  0  0  0  0  0  0  0  0  0  0
   17.8070   68.5390   13.9960 C   0  0  0  0  0  0  0  0  0  0  0  0
   16.7300   68.7630   16.2470 C   0  0  0  0  0  0  0  0  0  0  0  0
   19.7710   64.3158   16.4379 H   0  0  0  0  0  0  0  0  0  0  0  0
   18.6489   64.9895   15.2075 H   0  0  0  0  0  0  0  0  0  0  0  0
   20.3783   65.4751   15.2075 H   0  0  0  0  0  0  0  0  0  0  0  0
   18.2289   66.1646   17.2606 H   0  0  0  0  0  0  0  0  0  0  0  0
   20.0160   66.4415   17.5032 H   0  0  0  0  0  0  0  0  0  0  0  0
   19.8236   67.7303   15.2149 H   0  0  0  0  0  0  0  0  0  0  0  0
   18.9160   68.9886   17.9018 H   0  0  0  0  0  0  0  0  0  0  0  0
   21.0779   69.5794   15.8046 H   0  0  0  0  0  0  0  0  0  0  0  0
   21.8832   70.6223   18.1528 H   0  0  0  0  0  0  0  0  0  0  0  0
   21.1441   72.9677   17.5139 H   0  0  0  0  0  0  0  0  0  0  0  0
   21.9468   72.0306   16.2084 H   0  0  0  0  0  0  0  0  0  0  0  0
   20.1607   72.2225   16.2084 H   0  0  0  0  0  0  0  0  0  0  0  0
   18.9617   70.8630   18.2573 H   0  0  0  0  0  0  0  0  0  0  0  0
   19.4980   68.9841   19.7224 H   0  0  0  0  0  0  0  0  0  0  0  0
   21.1745   69.5389   19.9396 H   0  0  0  0  0  0  0  0  0  0  0  0
   19.0428   69.8273   21.8217 H   0  0  0  0  0  0  0  0  0  0  0  0
   20.5964   70.6440   21.9336 H   0  0  0  0  0  0  0  0  0  0  0  0
   17.9767   71.5678   20.7265 H   0  0  0  0  0  0  0  0  0  0  0  0
   19.5834   71.8168   23.5554 H   0  0  0  0  0  0  0  0  0  0  0  0
   18.2233   73.1839   25.1351 H   0  0  0  0  0  0  0  0  0  0  0  0
   19.5631   74.2773   24.5803 H   0  0  0  0  0  0  0  0  0  0  0  0
   16.6867   74.2130   23.5658 H   0  0  0  0  0  0  0  0  0  0  0  0
   16.9305   75.3085   25.7175 H   0  0  0  0  0  0  0  0  0  0  0  0
   18.2567   76.3431   25.0461 H   0  0  0  0  0  0  0  0  0  0  0  0
   15.3524   76.2717   24.1522 H   0  0  0  0  0  0  0  0  0  0  0  0
   15.6650   77.4750   26.0600 H   0  0  0  0  0  0  0  0  0  0  0  0
   15.8842   78.0692   22.6184 H   0  0  0  0  0  0  0  0  0  0  0  0
   17.6193   78.0224   23.1441 H   0  0  0  0  0  0  0  0  0  0  0  0
   16.0766   75.8287   21.6973 H   0  0  0  0  0  0  0  0  0  0  0  0
   17.4152   76.8862   21.0469 H   0  0  0  0  0  0  0  0  0  0  0  0
   19.6961   76.1853   23.5685 H   0  0  0  0  0  0  0  0  0  0  0  0
   20.2209   75.4464   22.0176 H   0  0  0  0  0  0  0  0  0  0  0  0
   19.3861   77.0369   22.0176 H   0  0  0  0  0  0  0  0  0  0  0  0
   17.0989   73.8655   21.1488 H   0  0  0  0  0  0  0  0  0  0  0  0
   18.0626   75.2752   19.5045 H   0  0  0  0  0  0  0  0  0  0  0  0
   19.7374   75.0049   20.2007 H   0  0  0  0  0  0  0  0  0  0  0  0
   18.0274   72.9884   18.6954 H   0  0  0  0  0  0  0  0  0  0  0  0
   19.5591   73.7904   18.1457 H   0  0  0  0  0  0  0  0  0  0  0  0
   21.3635   72.8249   21.1036 H   0  0  0  0  0  0  0  0  0  0  0  0
   22.0029   72.0999   19.5896 H   0  0  0  0  0  0  0  0  0  0  0  0
   21.3975   73.7910   19.5896 H   0  0  0  0  0  0  0  0  0  0  0  0
   17.2763   66.9189   15.3375 H   0  0  0  0  0  0  0  0  0  0  0  0
   17.9974   69.6194   14.0769 H   0  0  0  0  0  0  0  0  0  0  0  0
   18.6346   68.0605   13.4519 H   0  0  0  0  0  0  0  0  0  0  0  0
   16.8656   68.3723   13.4519 H   0  0  0  0  0  0  0  0  0  0  0  0
   16.9328   68.5893   17.3141 H   0  0  0  0  0  0  0  0  0  0  0  0
   16.8647   69.8302   16.0172 H   0  0  0  0  0  0  0  0  0  0  0  0
   15.6961   68.4661   16.0172 H   0  0  0  0  0  0  0  0  0  0  0  0
  1  2  1  0
  2  3  1  0
  3  4  1  0
  4  5  2  0
  5  6  1  0
  6  7  1  0
  6  8  1  0
  8  9  1  0
  9 10  1  0
 10 11  1  0
 11 12  1  0
 12 13  2  0
 13 14  1  0
 14 15  1  0
 15 16  1  0
 16 17  1  0
 17 18  1  0
 17 19  1  0
 19 20  1  0
 20 21  1  0
 21 22  1  1
 21 23  1  0
 23 24  1  0
 24 25  1  0
 25 26  1  0
 26 27  1  1
  3 28  1  0
 28 29  1  0
 28 30  1  0
 26  8  1  0
 26 11  1  0
 23 12  1  0
 21 15  1  0
  1 31  1  0
  1 32  1  0
  1 33  1  0
  2 34  1  0
  2 35  1  0
  3 36  1  6
  4 37  1  0
  5 38  1  0
  6 39  1  1
  7 40  1  0
  7 41  1  0
  7 42  1  0
  8 43  1  6
  9 44  1  0
  9 45  1  0
 10 46  1  0
 10 47  1  0
 11 48  1  6
 13 49  1  0
 14 50  1  0
 14 51  1  0
 15 52  1  6
 16 53  1  0
 16 54  1  0
 17 55  1  6
 18 56  1  0
 19 57  1  0
 19 58  1  0
 20 59  1  0
 20 60  1  0
 22 61  1  0
 22 62  1  0
 22 63  1  0
 23 64  1  6
 24 65  1  0
 24 66  1  0
 25 67  1  0
 25 68  1  0
 27 69  1  0
 27 70  1  0
 27 71  1  0
 28 72  1  0
 29 73  1  0
 29 74  1  0
 29 75  1  0
 30 76  1  0
 30 77  1  0
 30 78  1  0
M  END
>  <meeko>  (12) 
{"is_sidechain": [false], "free_energy": 2.204, "intermolecular_energy": 3.54, "internal_energy": -0.325}

$$$$
