2AA2_AS4_crystal
     RDKit          3D

 26 30  0  0  0  0  0  0  0  0999 V2000
   19.8700   73.9850   20.2970 C   0  0  2  0  0  0  0  0  0  0  0  0
   17.4550   73.7690   20.9300 C   0  0  0  0  0  0  0  0  0  0  0  0
   18.9890   72.9270   22.5790 C   0  0  0  0  0  0  0  0  0  0  0  0
   18.6700   70.4240   19.0570 C   0  0  1  0  0  0  0  0  0  0  0  0
   19.7270   70.1490   17.9400 C   0  0  0  0  0  0  0  0  0  0  0  0
   19.4650   69.3550   16.8630 C   0  0  0  0  0  0  0  0  0  0  0  0
   18.0970   68.6670   16.6740 C   0  0  0  0  0  0  0  0  0  0  0  0
   19.0190   69.4610   20.2520 C   0  0  0  0  0  0  0  0  0  0  0  0
   20.7130   75.7070   21.8680 C   0  0  0  0  0  0  0  0  0  0  0  0
   19.1660   75.5790   21.9050 C   0  0  2  0  0  0  0  0  0  0  0  0
   18.4750   76.1360   23.2040 C   0  0  0  0  0  0  0  0  0  0  0  0
   16.9640   76.3730   23.1630 C   0  0  0  0  0  0  0  0  0  0  0  0
   21.1680   74.6940   20.7900 C   0  0  0  0  0  0  0  0  0  0  0  0
   18.8690   74.0950   21.5270 C   0  0  1  0  0  0  0  0  0  0  0  0
   20.0500   72.5000   19.8510 C   0  0  1  0  0  0  0  0  0  0  0  0
   18.6260   71.9600   19.5140 C   0  0  2  0  0  0  0  0  0  0  0  0
   17.6310   72.2430   20.7480 C   0  0  1  0  0  0  0  0  0  0  0  0
   18.1950   71.8110   22.0140 O   0  0  0  0  0  0  0  0  0  0  0  0
   18.3890   73.2210   23.8400 O   0  0  0  0  0  0  0  0  0  0  0  0
   17.7730   68.1020   15.6360 O   0  0  0  0  0  0  0  0  0  0  0  0
   17.1160   68.6840   17.8750 C   0  0  0  0  0  0  0  0  0  0  0  0
   17.2540   70.1010   18.4590 C   0  0  0  0  0  0  0  0  0  0  0  0
   21.1140   70.8000   18.1620 C   0  0  0  0  0  0  0  0  0  0  0  0
   20.9910   72.2890   18.6040 C   0  0  0  0  0  0  0  0  0  0  0  0
   19.1350   76.3620   24.1890 O   0  0  0  0  0  0  0  0  0  0  0  0
   16.4710   76.4530   24.5030 O   0  0  0  0  0  0  0  0  0  0  0  0
  1 13  1  1
  1 14  1  0
  1 15  1  0
  2 14  1  0
  2 17  1  0
 14  3  1  1
  3 19  2  0
  4  5  1  0
  4  8  1  1
  4 16  1  0
  4 22  1  0
  5  6  2  0
  5 23  1  0
  6  7  1  0
  7 20  2  0
  7 21  1  0
  9 10  1  0
  9 13  1  0
 10 11  1  1
 10 14  1  0
 11 12  1  0
 11 25  2  0
 12 26  1  0
 15 16  1  0
 15 24  1  6
 16 17  1  1
 17 18  1  1
 21 22  1  0
 23 24  1  0
 18  3  1  0
M  END
$$$$
