native_redocked
     RDKit          3D

 52 56  0  0  0  0  0  0  0  0999 V2000
   18.9420   69.4020   19.9890 C   0  0  0  0  0  0  0  0  0  0  0  0
   18.6450   70.4180   18.8240 C   0  0  2  0  0  0  0  0  0  0  0  0
   17.2160   70.1870   18.2160 C   0  0  0  0  0  0  0  0  0  0  0  0
   17.0060   68.7970   17.5880 C   0  0  0  0  0  0  0  0  0  0  0  0
   17.9880   68.7670   16.3880 C   0  0  0  0  0  0  0  0  0  0  0  0
   17.6370   68.2520   15.3330 O   0  0  0  0  0  0  0  0  0  0  0  0
   19.3890   69.3780   16.5990 C   0  0  0  0  0  0  0  0  0  0  0  0
   19.6890   70.1230   17.7000 C   0  0  0  0  0  0  0  0  0  0  0  0
   21.1070   70.6950   17.9430 C   0  0  0  0  0  0  0  0  0  0  0  0
   21.0600   72.1740   18.4300 C   0  0  0  0  0  0  0  0  0  0  0  0
   20.1290   72.3940   19.6830 C   0  0  2  0  0  0  0  0  0  0  0  0
   18.6790   71.9390   19.3290 C   0  0  2  0  0  0  0  0  0  0  0  0
   17.6980   72.2350   20.5700 C   0  0  2  0  0  0  0  0  0  0  0  0
   17.6000   73.7610   20.7990 C   0  0  0  0  0  0  0  0  0  0  0  0
   19.0280   73.9960   21.4070 C   0  0  2  0  0  0  0  0  0  0  0  0
   19.0850   72.7910   22.4220 C   0  0  0  0  0  0  0  0  0  0  0  0
   18.4990   73.0760   23.6910 O   0  0  0  0  0  0  0  0  0  0  0  0
   18.2360   71.7350   21.8230 O   0  0  0  0  0  0  0  0  0  0  0  0
   19.4000   75.4500   21.8310 C   0  0  1  0  0  0  0  0  0  0  0  0
   18.7360   76.0010   23.1460 C   0  0  0  0  0  0  0  0  0  0  0  0
   19.3890   76.1010   24.1560 O   0  0  0  0  0  0  0  0  0  0  0  0
   17.2590   76.3970   23.0880 C   0  0  0  0  0  0  0  0  0  0  0  0
   16.6480   76.0920   24.3450 O   0  0  0  0  0  0  0  0  0  0  0  0
   20.9510   75.4990   21.7990 C   0  0  0  0  0  0  0  0  0  0  0  0
   21.3560   74.4980   20.6900 C   0  0  0  0  0  0  0  0  0  0  0  0
   20.0240   73.8720   20.1750 C   0  0  1  0  0  0  0  0  0  0  0  0
   18.7958   69.9021   20.9578 H   0  0  0  0  0  0  0  0  0  0  0  0
   18.2568   68.5450   19.9117 H   0  0  0  0  0  0  0  0  0  0  0  0
   19.9809   69.0490   19.9117 H   0  0  0  0  0  0  0  0  0  0  0  0
   16.4759   70.3163   19.0194 H   0  0  0  0  0  0  0  0  0  0  0  0
   17.1003   70.9184   17.4025 H   0  0  0  0  0  0  0  0  0  0  0  0
   17.2479   68.0027   18.3095 H   0  0  0  0  0  0  0  0  0  0  0  0
   15.9631   68.6269   17.2823 H   0  0  0  0  0  0  0  0  0  0  0  0
   20.1668   69.2076   15.8401 H   0  0  0  0  0  0  0  0  0  0  0  0
   21.6108   70.0847   18.7070 H   0  0  0  0  0  0  0  0  0  0  0  0
   21.6545   70.6669   16.9893 H   0  0  0  0  0  0  0  0  0  0  0  0
   22.0809   72.4857   18.6957 H   0  0  0  0  0  0  0  0  0  0  0  0
   20.6420   72.7725   17.6072 H   0  0  0  0  0  0  0  0  0  0  0  0
   20.5921   71.8059   20.4890 H   0  0  0  0  0  0  0  0  0  0  0  0
   18.3071   72.5287   18.4781 H   0  0  0  0  0  0  0  0  0  0  0  0
   16.7402   71.7556   20.3195 H   0  0  0  0  0  0  0  0  0  0  0  0
   17.4537   74.3128   19.8587 H   0  0  0  0  0  0  0  0  0  0  0  0
   16.7554   74.0983   21.4178 H   0  0  0  0  0  0  0  0  0  0  0  0
   18.9589   76.1670   21.1229 H   0  0  0  0  0  0  0  0  0  0  0  0
   17.1733   77.4752   22.8877 H   0  0  0  0  0  0  0  0  0  0  0  0
   16.7552   75.8406   22.2839 H   0  0  0  0  0  0  0  0  0  0  0  0
   17.3200   75.7560   24.9570 H   0  0  0  0  0  0  0  0  0  0  0  0
   21.3016   76.5122   21.5532 H   0  0  0  0  0  0  0  0  0  0  0  0
   21.3945   75.2419   22.7722 H   0  0  0  0  0  0  0  0  0  0  0  0
   21.8745   75.0209   19.8729 H   0  0  0  0  0  0  0  0  0  0  0  0
   22.0440   73.7288   21.0707 H   0  0  0  0  0  0  0  0  0  0  0  0
   19.6878   74.4049   19.2733 H   0  0  0  0  0  0  0  0  0  0  0  0
  2  1  1  1
  2  3  1  0
  3  4  1  0
  4  5  1  0
  5  6  2  0
  5  7  1  0
  7  8  2  0
  8  9  1  0
  9 10  1  0
 10 11  1  0
 11 12  1  0
 12 13  1  0
 13 14  1  0
 14 15  1  0
 15 16  1  1
 16 17  2  0
 16 18  1  0
 15 19  1  0
 19 20  1  0
 20 21  2  0
 20 22  1  0
 22 23  1  0
 19 24  1  0
 24 25  1  0
 25 26  1  0
  8  2  1  0
 26 11  1  0
 12  2  1  0
 18 13  1  0
 26 15  1  0
  1 27  1  0
  1 28  1  0
  1 29  1  0
  3 30  1  0
  3 31  1  0
  4 32  1  0
  4 33  1  0
  7 34  1  0
  9 35  1  0
  9 36  1  0
 10 37  1  0
 10 38  1  0
 11 39  1  1
 12 40  1  6
 13 41  1  6
 14 42  1  0
 14 43  1  0
 19 44  1  6
 22 45  1  0
 22 46  1  0
 23 47  1  0
 24 48  1  0
 24 49  1  0
 25 50  1  0
 25 51  1  0
 26 52  1  6
M  END
>  <meeko>  (1) 
{"is_sidechain": [false], "free_energy": -12.112, "intermolecular_energy": -13.882, "internal_energy": -0.191}

$$$$
native_redocked
     RDKit          3D

 52 56  0  0  0  0  0  0  0  0999 V2000
   18.8260   69.4350   19.9650 C   0  0  0  0  0  0  0  0  0  0  0  0
   18.5840   70.4620   18.7970 C   0  0  2  0  0  0  0  0  0  0  0  0
   17.1690   70.2590   18.1440 C   0  0  0  0  0  0  0  0  0  0  0  0
   16.9550   68.8770   17.5030 C   0  0  0  0  0  0  0  0  0  0  0  0
   17.9710   68.8340   16.3330 C   0  0  0  0  0  0  0  0  0  0  0  0
   17.6440   68.3300   15.2650 O   0  0  0  0  0  0  0  0  0  0  0  0
   19.3760   69.4190   16.5900 C   0  0  0  0  0  0  0  0  0  0  0  0
   19.6560   70.1540   17.7030 C   0  0  0  0  0  0  0  0  0  0  0  0
   21.0760   70.6990   17.9920 C   0  0  0  0  0  0  0  0  0  0  0  0
   21.0400   72.1770   18.4860 C   0  0  0  0  0  0  0  0  0  0  0  0
   20.0750   72.4080   19.7100 C   0  0  2  0  0  0  0  0  0  0  0  0
   18.6290   71.9800   19.3100 C   0  0  2  0  0  0  0  0  0  0  0  0
   17.6160   72.2870   20.5230 C   0  0  2  0  0  0  0  0  0  0  0  0
   17.5380   73.8140   20.7570 C   0  0  0  0  0  0  0  0  0  0  0  0
   18.9500   74.0200   21.4080 C   0  0  2  0  0  0  0  0  0  0  0  0
   18.9560   72.8100   22.4190 C   0  0  0  0  0  0  0  0  0  0  0  0
   18.3360   73.1000   23.6710 O   0  0  0  0  0  0  0  0  0  0  0  0
   18.1070   71.7730   21.7880 O   0  0  0  0  0  0  0  0  0  0  0  0
   19.3350   75.4660   21.8510 C   0  0  1  0  0  0  0  0  0  0  0  0
   18.6410   76.0230   23.1480 C   0  0  0  0  0  0  0  0  0  0  0  0
   19.2930   76.2160   24.1460 O   0  0  0  0  0  0  0  0  0  0  0  0
   17.1380   76.3030   23.0900 C   0  0  0  0  0  0  0  0  0  0  0  0
   16.8790   77.5720   23.6950 O   0  0  0  0  0  0  0  0  0  0  0  0
   20.8880   75.4880   21.8660 C   0  0  0  0  0  0  0  0  0  0  0  0
   21.3080   74.4840   20.7650 C   0  0  0  0  0  0  0  0  0  0  0  0
   19.9820   73.8850   20.2060 C   0  0  1  0  0  0  0  0  0  0  0  0
   18.7059   69.9448   20.9323 H   0  0  0  0  0  0  0  0  0  0  0  0
   18.0964   68.6152   19.8895 H   0  0  0  0  0  0  0  0  0  0  0  0
   19.8448   69.0272   19.8895 H   0  0  0  0  0  0  0  0  0  0  0  0
   16.4070   70.3972   18.9252 H   0  0  0  0  0  0  0  0  0  0  0  0
   17.0905   70.9964   17.3316 H   0  0  0  0  0  0  0  0  0  0  0  0
   17.1614   68.0755   18.2276 H   0  0  0  0  0  0  0  0  0  0  0  0
   15.9190   68.7272   17.1648 H   0  0  0  0  0  0  0  0  0  0  0  0
   20.1735   69.2376   15.8544 H   0  0  0  0  0  0  0  0  0  0  0  0
   21.5454   70.0758   18.7675 H   0  0  0  0  0  0  0  0  0  0  0  0
   21.6519   70.6657   17.0554 H   0  0  0  0  0  0  0  0  0  0  0  0
   22.0575   72.4689   18.7851 H   0  0  0  0  0  0  0  0  0  0  0  0
   20.6583   72.7868   17.6538 H   0  0  0  0  0  0  0  0  0  0  0  0
   20.5021   71.8080   20.5271 H   0  0  0  0  0  0  0  0  0  0  0  0
   18.2935   72.5800   18.4513 H   0  0  0  0  0  0  0  0  0  0  0  0
   16.6582   71.8251   20.2414 H   0  0  0  0  0  0  0  0  0  0  0  0
   17.4298   74.3728   19.8157 H   0  0  0  0  0  0  0  0  0  0  0  0
   16.6814   74.1636   21.3519 H   0  0  0  0  0  0  0  0  0  0  0  0
   18.9283   76.1939   21.1335 H   0  0  0  0  0  0  0  0  0  0  0  0
   16.8058   76.3193   22.0415 H   0  0  0  0  0  0  0  0  0  0  0  0
   16.5914   75.5151   23.6288 H   0  0  0  0  0  0  0  0  0  0  0  0
   15.9460   77.8050   23.5720 H   0  0  0  0  0  0  0  0  0  0  0  0
   21.2636   76.4958   21.6352 H   0  0  0  0  0  0  0  0  0  0  0  0
   21.2977   75.2197   22.8510 H   0  0  0  0  0  0  0  0  0  0  0  0
   21.8611   75.0006   19.9667 H   0  0  0  0  0  0  0  0  0  0  0  0
   21.9692   73.7004   21.1634 H   0  0  0  0  0  0  0  0  0  0  0  0
   19.6842   74.4290   19.2975 H   0  0  0  0  0  0  0  0  0  0  0  0
  2  1  1  1
  2  3  1  0
  3  4  1  0
  4  5  1  0
  5  6  2  0
  5  7  1  0
  7  8  2  0
  8  9  1  0
  9 10  1  0
 10 11  1  0
 11 12  1  0
 12 13  1  0
 13 14  1  0
 14 15  1  0
 15 16  1  1
 16 17  2  0
 16 18  1  0
 15 19  1  0
 19 20  1  0
 20 21  2  0
 20 22  1  0
 22 23  1  0
 19 24  1  0
 24 25  1  0
 25 26  1  0
  8  2  1  0
 26 11  1  0
 12  2  1  0
 18 13  1  0
 26 15  1  0
  1 27  1  0
  1 28  1  0
  1 29  1  0
  3 30  1  0
  3 31  1  0
  4 32  1  0
  4 33  1  0
  7 34  1  0
  9 35  1  0
  9 36  1  0
 10 37  1  0
 10 38  1  0
 11 39  1  1
 12 40  1  6
 13 41  1  6
 14 42  1  0
 14 43  1  0
 19 44  1  6
 22 45  1  0
 22 46  1  0
 23 47  1  0
 24 48  1  0
 24 49  1  0
 25 50  1  0
 25 51  1  0
 26 52  1  6
M  END
>  <meeko>  (2) 
{"is_sidechain": [false], "free_energy": -11.668, "intermolecular_energy": -13.431, "internal_energy": -0.133}

$$$$
native_redocked
     RDKit          3D

 52 56  0  0  0  0  0  0  0  0999 V2000
   19.9880   74.4770   20.8210 C   0  0  0  0  0  0  0  0  0  0  0  0
   18.5400   74.1170   21.3220 C   0  0  2  0  0  0  0  0  0  0  0  0
   17.5210   75.2650   20.9930 C   0  0  0  0  0  0  0  0  0  0  0  0
   17.8420   76.6140   21.6600 C   0  0  0  0  0  0  0  0  0  0  0  0
   17.6930   76.3360   23.1790 C   0  0  0  0  0  0  0  0  0  0  0  0
   17.1730   77.1800   23.9000 O   0  0  0  0  0  0  0  0  0  0  0  0
   18.2390   74.9960   23.7140 C   0  0  0  0  0  0  0  0  0  0  0  0
   18.6240   73.9920   22.8770 C   0  0  0  0  0  0  0  0  0  0  0  0
   19.2220   72.6650   23.4060 C   0  0  0  0  0  0  0  0  0  0  0  0
   18.6230   71.4270   22.6740 C   0  0  0  0  0  0  0  0  0  0  0  0
   18.7200   71.5160   21.1030 C   0  0  2  0  0  0  0  0  0  0  0  0
   17.9710   72.7940   20.6160 C   0  0  2  0  0  0  0  0  0  0  0  0
   17.9900   72.8560   19.0070 C   0  0  2  0  0  0  0  0  0  0  0  0
   17.1810   71.6680   18.4350 C   0  0  0  0  0  0  0  0  0  0  0  0
   18.1980   70.5180   18.7630 C   0  0  2  0  0  0  0  0  0  0  0  0
   19.5340   71.1980   18.2780 C   0  0  0  0  0  0  0  0  0  0  0  0
   19.7950   71.0320   16.8840 O   0  0  0  0  0  0  0  0  0  0  0  0
   19.3230   72.6520   18.4690 O   0  0  0  0  0  0  0  0  0  0  0  0
   17.8070   69.0690   18.3350 C   0  0  1  0  0  0  0  0  0  0  0  0
   17.8970   68.7290   16.8020 C   0  0  0  0  0  0  0  0  0  0  0  0
   16.9400   68.9050   16.0880 O   0  0  0  0  0  0  0  0  0  0  0  0
   19.2220   68.1800   16.2690 C   0  0  0  0  0  0  0  0  0  0  0  0
   19.0780   66.7780   16.0270 O   0  0  0  0  0  0  0  0  0  0  0  0
   18.6210   68.1350   19.2720 C   0  0  0  0  0  0  0  0  0  0  0  0
   18.7720   68.9310   20.5900 C   0  0  0  0  0  0  0  0  0  0  0  0
   18.0920   70.3110   20.3350 C   0  0  1  0  0  0  0  0  0  0  0  0
   20.6457   74.6405   21.6874 H   0  0  0  0  0  0  0  0  0  0  0  0
   20.3818   73.6494   20.2127 H   0  0  0  0  0  0  0  0  0  0  0  0
   19.9484   75.3927   20.2127 H   0  0  0  0  0  0  0  0  0  0  0  0
   17.5117   75.4142   19.9032 H   0  0  0  0  0  0  0  0  0  0  0  0
   16.5476   74.9429   21.3915 H   0  0  0  0  0  0  0  0  0  0  0  0
   18.8674   76.9326   21.4210 H   0  0  0  0  0  0  0  0  0  0  0  0
   17.1805   77.4218   21.3138 H   0  0  0  0  0  0  0  0  0  0  0  0
   18.3197   74.8469   24.8009 H   0  0  0  0  0  0  0  0  0  0  0  0
   20.3108   72.6782   23.2502 H   0  0  0  0  0  0  0  0  0  0  0  0
   18.9761   72.5817   24.4749 H   0  0  0  0  0  0  0  0  0  0  0  0
   19.1663   70.5300   23.0059 H   0  0  0  0  0  0  0  0  0  0  0  0
   17.5539   71.3865   22.9298 H   0  0  0  0  0  0  0  0  0  0  0  0
   19.7979   71.5261   20.8837 H   0  0  0  0  0  0  0  0  0  0  0  0
   16.9162   72.7395   20.9233 H   0  0  0  0  0  0  0  0  0  0  0  0
   17.5899   73.8444   18.7368 H   0  0  0  0  0  0  0  0  0  0  0  0
   16.2202   71.5325   18.9533 H   0  0  0  0  0  0  0  0  0  0  0  0
   16.8822   71.7562   17.3801 H   0  0  0  0  0  0  0  0  0  0  0  0
   16.7239   68.9245   18.4616 H   0  0  0  0  0  0  0  0  0  0  0  0
   19.4833   68.6918   15.3310 H   0  0  0  0  0  0  0  0  0  0  0  0
   20.0202   68.3511   17.0063 H   0  0  0  0  0  0  0  0  0  0  0  0
   19.8590   66.3100   16.3630 H   0  0  0  0  0  0  0  0  0  0  0  0
   18.0788   67.1942   19.4475 H   0  0  0  0  0  0  0  0  0  0  0  0
   19.5942   67.8593   18.8398 H   0  0  0  0  0  0  0  0  0  0  0  0
   18.2707   68.4039   21.4151 H   0  0  0  0  0  0  0  0  0  0  0  0
   19.8285   69.0471   20.8733 H   0  0  0  0  0  0  0  0  0  0  0  0
   17.0601   70.2912   20.7154 H   0  0  0  0  0  0  0  0  0  0  0  0
  2  1  1  6
  2  3  1  0
  3  4  1  0
  4  5  1  0
  5  6  2  0
  5  7  1  0
  7  8  2  0
  8  9  1  0
  9 10  1  0
 10 11  1  0
 11 12  1  0
 12 13  1  0
 13 14  1  0
 14 15  1  0
 15 16  1  1
 16 17  2  0
 16 18  1  0
 15 19  1  0
 19 20  1  0
 20 21  2  0
 20 22  1  0
 22 23  1  0
 19 24  1  0
 24 25  1  0
 25 26  1  0
  8  2  1  0
 26 11  1  0
 12  2  1  0
 18 13  1  0
 26 15  1  0
  1 27  1  0
  1 28  1  0
  1 29  1  0
  3 30  1  0
  3 31  1  0
  4 32  1  0
  4 33  1  0
  7 34  1  0
  9 35  1  0
  9 36  1  0
 10 37  1  0
 10 38  1  0
 11 39  1  1
 12 40  1  1
 13 41  1  1
 14 42  1  0
 14 43  1  0
 19 44  1  1
 22 45  1  0
 22 46  1  0
 23 47  1  0
 24 48  1  0
 24 49  1  0
 25 50  1  0
 25 51  1  0
 26 52  1  1
M  END
>  <meeko>  (3) 
{"is_sidechain": [false], "free_energy": -9.725, "intermolecular_energy": -11.425, "internal_energy": 0.086}

$$$$
native_redocked
     RDKit          3D

 52 56  0  0  0  0  0  0  0  0999 V2000
   17.7440   75.0830   20.5120 C   0  0  0  0  0  0  0  0  0  0  0  0
   18.7120   74.3030   21.4770 C   0  0  2  0  0  0  0  0  0  0  0  0
   18.0470   74.0650   22.8810 C   0  0  0  0  0  0  0  0  0  0  0  0
   17.6860   75.3520   23.6430 C   0  0  0  0  0  0  0  0  0  0  0  0
   19.0530   76.0240   23.9300 C   0  0  0  0  0  0  0  0  0  0  0  0
   19.2450   76.5650   25.0130 O   0  0  0  0  0  0  0  0  0  0  0  0
   20.1100   75.9970   22.8060 C   0  0  0  0  0  0  0  0  0  0  0  0
   19.9570   75.2210   21.6960 C   0  0  0  0  0  0  0  0  0  0  0  0
   20.9880   75.2280   20.5410 C   0  0  0  0  0  0  0  0  0  0  0  0
   21.3070   73.7880   20.0400 C   0  0  0  0  0  0  0  0  0  0  0  0
   20.0240   72.9540   19.6600 C   0  0  2  0  0  0  0  0  0  0  0  0
   19.0920   72.8540   20.9070 C   0  0  2  0  0  0  0  0  0  0  0  0
   17.8160   71.9360   20.5600 C   0  0  2  0  0  0  0  0  0  0  0  0
   18.2820   70.4870   20.2830 C   0  0  0  0  0  0  0  0  0  0  0  0
   18.9470   70.7230   18.8810 C   0  0  2  0  0  0  0  0  0  0  0  0
   17.8310   71.6060   18.2030 C   0  0  0  0  0  0  0  0  0  0  0  0
   16.7920   70.8500   17.5830 O   0  0  0  0  0  0  0  0  0  0  0  0
   17.1800   72.3340   19.3170 O   0  0  0  0  0  0  0  0  0  0  0  0
   19.5690   69.4860   18.1630 C   0  0  1  0  0  0  0  0  0  0  0  0
   18.5680   68.4510   17.5280 C   0  0  0  0  0  0  0  0  0  0  0  0
   17.7500   67.8990   18.2230 O   0  0  0  0  0  0  0  0  0  0  0  0
   18.6760   68.1830   16.0260 C   0  0  0  0  0  0  0  0  0  0  0  0
   19.0570   66.8200   15.8250 O   0  0  0  0  0  0  0  0  0  0  0  0
   20.6270   70.0700   17.1880 C   0  0  0  0  0  0  0  0  0  0  0  0
   21.1340   71.3590   17.8810 C   0  0  0  0  0  0  0  0  0  0  0  0
   20.3030   71.4910   19.1930 C   0  0  1  0  0  0  0  0  0  0  0  0
   17.0233   75.6637   21.1064 H   0  0  0  0  0  0  0  0  0  0  0  0
   18.3296   75.7646   19.8775 H   0  0  0  0  0  0  0  0  0  0  0  0
   17.2025   74.3659   19.8775 H   0  0  0  0  0  0  0  0  0  0  0  0
   17.1246   73.4849   22.7303 H   0  0  0  0  0  0  0  0  0  0  0  0
   18.7921   73.5371   23.4944 H   0  0  0  0  0  0  0  0  0  0  0  0
   17.0526   76.0057   23.0254 H   0  0  0  0  0  0  0  0  0  0  0  0
   17.1160   75.1502   24.5619 H   0  0  0  0  0  0  0  0  0  0  0  0
   21.0109   76.6206   22.9032 H   0  0  0  0  0  0  0  0  0  0  0  0
   20.5806   75.8139   19.7039 H   0  0  0  0  0  0  0  0  0  0  0  0
   21.9206   75.6725   20.9186 H   0  0  0  0  0  0  0  0  0  0  0  0
   21.9490   73.8636   19.1500 H   0  0  0  0  0  0  0  0  0  0  0  0
   21.8016   73.2600   20.8686 H   0  0  0  0  0  0  0  0  0  0  0  0
   19.5731   73.4933   18.8140 H   0  0  0  0  0  0  0  0  0  0  0  0
   19.6305   72.3584   21.7282 H   0  0  0  0  0  0  0  0  0  0  0  0
   17.1314   72.0322   21.4156 H   0  0  0  0  0  0  0  0  0  0  0  0
   19.0065   70.1340   21.0316 H   0  0  0  0  0  0  0  0  0  0  0  0
   17.4970   69.7172   20.3168 H   0  0  0  0  0  0  0  0  0  0  0  0
   20.0296   68.8195   18.9071 H   0  0  0  0  0  0  0  0  0  0  0  0
   17.7035   68.3690   15.5469 H   0  0  0  0  0  0  0  0  0  0  0  0
   19.4295   68.8500   15.5817 H   0  0  0  0  0  0  0  0  0  0  0  0
   19.1460   66.3790   16.6840 H   0  0  0  0  0  0  0  0  0  0  0  0
   21.4529   69.3585   17.0408 H   0  0  0  0  0  0  0  0  0  0  0  0
   20.2070   70.2717   16.1915 H   0  0  0  0  0  0  0  0  0  0  0  0
   22.2057   71.2727   18.1135 H   0  0  0  0  0  0  0  0  0  0  0  0
   21.0126   72.2407   17.2345 H   0  0  0  0  0  0  0  0  0  0  0  0
   20.8716   71.0699   20.0353 H   0  0  0  0  0  0  0  0  0  0  0  0
  2  1  1  6
  2  3  1  0
  3  4  1  0
  4  5  1  0
  5  6  2  0
  5  7  1  0
  7  8  2  0
  8  9  1  0
  9 10  1  0
 10 11  1  0
 11 12  1  0
 12 13  1  0
 13 14  1  0
 14 15  1  0
 15 16  1  6
 16 17  2  0
 16 18  1  0
 15 19  1  0
 19 20  1  0
 20 21  2  0
 20 22  1  0
 22 23  1  0
 19 24  1  0
 24 25  1  0
 25 26  1  0
  8  2  1  0
 26 11  1  0
 12  2  1  0
 18 13  1  0
 26 15  1  0
  1 27  1  0
  1 28  1  0
  1 29  1  0
  3 30  1  0
  3 31  1  0
  4 32  1  0
  4 33  1  0
  7 34  1  0
  9 35  1  0
  9 36  1  0
 10 37  1  0
 10 38  1  0
 11 39  1  6
 12 40  1  1
 13 41  1  1
 14 42  1  0
 14 43  1  0
 19 44  1  1
 22 45  1  0
 22 46  1  0
 23 47  1  0
 24 48  1  0
 24 49  1  0
 25 50  1  0
 25 51  1  0
 26 52  1  1
M  END
>  <meeko>  (4) 
{"is_sidechain": [false], "free_energy": -7.109, "intermolecular_energy": -8.145, "internal_energy": -0.195}

$$$$
native_redocked
     RDKit          3D

 52 56  0  0  0  0  0  0  0  0999 V2000
   16.8970   70.4550   17.8620 C   0  0  0  0  0  0  0  0  0  0  0  0
   18.4240   70.1320   18.0630 C   0  0  2  0  0  0  0  0  0  0  0  0
   19.2260   70.3110   16.7240 C   0  0  0  0  0  0  0  0  0  0  0  0
   18.7750   69.3830   15.5820 C   0  0  0  0  0  0  0  0  0  0  0  0
   19.1110   67.9570   16.0900 C   0  0  0  0  0  0  0  0  0  0  0  0
   19.5690   67.1290   15.3120 O   0  0  0  0  0  0  0  0  0  0  0  0
   18.8230   67.6440   17.5740 C   0  0  0  0  0  0  0  0  0  0  0  0
   18.5110   68.6260   18.4670 C   0  0  0  0  0  0  0  0  0  0  0  0
   18.1700   68.3130   19.9440 C   0  0  0  0  0  0  0  0  0  0  0  0
   18.8710   69.3020   20.9230 C   0  0  0  0  0  0  0  0  0  0  0  0
   18.6090   70.8180   20.5810 C   0  0  2  0  0  0  0  0  0  0  0  0
   19.1100   71.1090   19.1330 C   0  0  2  0  0  0  0  0  0  0  0  0
   18.9260   72.6730   18.7970 C   0  0  2  0  0  0  0  0  0  0  0  0
   19.8410   73.5110   19.7210 C   0  0  0  0  0  0  0  0  0  0  0  0
   19.0430   73.3340   21.0600 C   0  0  2  0  0  0  0  0  0  0  0  0
   17.5790   73.5910   20.5320 C   0  0  0  0  0  0  0  0  0  0  0  0
   17.2110   74.9690   20.4950 O   0  0  0  0  0  0  0  0  0  0  0  0
   17.5910   73.1460   19.1190 O   0  0  0  0  0  0  0  0  0  0  0  0
   19.5990   74.0500   22.3290 C   0  0  1  0  0  0  0  0  0  0  0  0
   19.4110   75.6100   22.4080 C   0  0  0  0  0  0  0  0  0  0  0  0
   19.9590   76.3250   21.6050 O   0  0  0  0  0  0  0  0  0  0  0  0
   18.5230   76.1660   23.5230 C   0  0  0  0  0  0  0  0  0  0  0  0
   17.1530   75.9390   23.1820 O   0  0  0  0  0  0  0  0  0  0  0  0
   19.0270   73.2500   23.5310 C   0  0  0  0  0  0  0  0  0  0  0  0
   18.8900   71.7990   23.0110 C   0  0  0  0  0  0  0  0  0  0  0  0
   19.3310   71.8390   21.5160 C   0  0  1  0  0  0  0  0  0  0  0  0
   16.4116   70.5577   18.8438 H   0  0  0  0  0  0  0  0  0  0  0  0
   16.7919   71.3953   17.3009 H   0  0  0  0  0  0  0  0  0  0  0  0
   16.4201   69.6379   17.3009 H   0  0  0  0  0  0  0  0  0  0  0  0
   19.1069   71.3518   16.3885 H   0  0  0  0  0  0  0  0  0  0  0  0
   20.2706   70.0483   16.9471 H   0  0  0  0  0  0  0  0  0  0  0  0
   17.6953   69.4869   15.3991 H   0  0  0  0  0  0  0  0  0  0  0  0
   19.2726   69.6173   14.6294 H   0  0  0  0  0  0  0  0  0  0  0  0
   18.8708   66.6010   17.9202 H   0  0  0  0  0  0  0  0  0  0  0  0
   17.0812   68.3880   20.0814 H   0  0  0  0  0  0  0  0  0  0  0  0
   18.5285   67.2978   20.1694 H   0  0  0  0  0  0  0  0  0  0  0  0
   18.5010   69.1057   21.9401 H   0  0  0  0  0  0  0  0  0  0  0  0
   19.9542   69.1328   20.8327 H   0  0  0  0  0  0  0  0  0  0  0  0
   17.5253   70.9565   20.7095 H   0  0  0  0  0  0  0  0  0  0  0  0
   20.1861   70.8906   19.0678 H   0  0  0  0  0  0  0  0  0  0  0  0
   19.1486   72.7814   17.7252 H   0  0  0  0  0  0  0  0  0  0  0  0
   20.8572   73.0950   19.7860 H   0  0  0  0  0  0  0  0  0  0  0  0
   20.0182   74.5493   19.4040 H   0  0  0  0  0  0  0  0  0  0  0  0
   20.6987   74.0274   22.3154 H   0  0  0  0  0  0  0  0  0  0  0  0
   18.7569   75.6569   24.4696 H   0  0  0  0  0  0  0  0  0  0  0  0
   18.7037   77.2447   23.6398 H   0  0  0  0  0  0  0  0  0  0  0  0
   16.6080   75.9920   23.9820 H   0  0  0  0  0  0  0  0  0  0  0  0
   19.7164   73.2913   24.3872 H   0  0  0  0  0  0  0  0  0  0  0  0
   18.0675   73.6575   23.8821 H   0  0  0  0  0  0  0  0  0  0  0  0
   19.5418   71.1236   23.5845 H   0  0  0  0  0  0  0  0  0  0  0  0
   17.8608   71.4260   23.1193 H   0  0  0  0  0  0  0  0  0  0  0  0
   20.3867   71.5415   21.4327 H   0  0  0  0  0  0  0  0  0  0  0  0
  2  1  1  6
  2  3  1  0
  3  4  1  0
  4  5  1  0
  5  6  2  0
  5  7  1  0
  7  8  2  0
  8  9  1  0
  9 10  1  0
 10 11  1  0
 11 12  1  0
 12 13  1  0
 13 14  1  0
 14 15  1  0
 15 16  1  6
 16 17  2  0
 16 18  1  0
 15 19  1  0
 19 20  1  0
 20 21  2  0
 20 22  1  0
 22 23  1  0
 19 24  1  0
 24 25  1  0
 25 26  1  0
  8  2  1  0
 26 11  1  0
 12  2  1  0
 18 13  1  0
 26 15  1  0
  1 27  1  0
  1 28  1  0
  1 29  1  0
  3 30  1  0
  3 31  1  0
  4 32  1  0
  4 33  1  0
  7 34  1  0
  9 35  1  0
  9 36  1  0
 10 37  1  0
 10 38  1  0
 11 39  1  6
 12 40  1  1
 13 41  1  6
 14 42  1  0
 14 43  1  0
 19 44  1  6
 22 45  1  0
 22 46  1  0
 23 47  1  0
 24 48  1  0
 24 49  1  0
 25 50  1  0
 25 51  1  0
 26 52  1  1
M  END
>  <meeko>  (5) 
{"is_sidechain": [false], "free_energy": -6.78, "intermolecular_energy": -7.526, "internal_energy": -0.436}

$$$$
native_redocked
     RDKit          3D

 52 56  0  0  0  0  0  0  0  0999 V2000
   17.7150   71.8150   18.1830 C   0  0  0  0  0  0  0  0  0  0  0  0
   19.2000   71.6320   18.6720 C   0  0  2  0  0  0  0  0  0  0  0  0
   20.2200   72.2100   17.6270 C   0  0  0  0  0  0  0  0  0  0  0  0
   20.1740   71.5290   16.2470 C   0  0  0  0  0  0  0  0  0  0  0  0
   20.6290   70.0720   16.5230 C   0  0  0  0  0  0  0  0  0  0  0  0
   21.3670   69.5080   15.7240 O   0  0  0  0  0  0  0  0  0  0  0  0
   20.0960   69.3910   17.8000 C   0  0  0  0  0  0  0  0  0  0  0  0
   19.4490   70.0930   18.7730 C   0  0  0  0  0  0  0  0  0  0  0  0
   18.8670   69.4070   20.0330 C   0  0  0  0  0  0  0  0  0  0  0  0
   19.1790   70.2130   21.3280 C   0  0  0  0  0  0  0  0  0  0  0  0
   18.7470   71.7270   21.2470 C   0  0  2  0  0  0  0  0  0  0  0  0
   19.4810   72.4040   20.0490 C   0  0  2  0  0  0  0  0  0  0  0  0
   19.1140   73.9720   20.0020 C   0  0  2  0  0  0  0  0  0  0  0  0
   19.6680   74.6700   21.2660 C   0  0  0  0  0  0  0  0  0  0  0  0
   18.6510   74.0940   22.3120 C   0  0  2  0  0  0  0  0  0  0  0  0
   17.3060   74.2970   21.5150 C   0  0  0  0  0  0  0  0  0  0  0  0
   16.7320   75.5940   21.6700 O   0  0  0  0  0  0  0  0  0  0  0  0
   17.6820   74.2000   20.0860 O   0  0  0  0  0  0  0  0  0  0  0  0
   18.8070   74.5530   23.7950 C   0  0  1  0  0  0  0  0  0  0  0  0
   18.3530   76.0190   24.1400 C   0  0  0  0  0  0  0  0  0  0  0  0
   19.1640   76.9110   24.1690 O   0  0  0  0  0  0  0  0  0  0  0  0
   16.8690   76.2560   24.4320 C   0  0  0  0  0  0  0  0  0  0  0  0
   16.4750   77.4990   23.8440 O   0  0  0  0  0  0  0  0  0  0  0  0
   18.1400   73.4330   24.6400 C   0  0  0  0  0  0  0  0  0  0  0  0
   18.3540   72.1380   23.8200 C   0  0  0  0  0  0  0  0  0  0  0  0
   19.0810   72.5770   22.5130 C   0  0  1  0  0  0  0  0  0  0  0  0
   17.0493   71.8970   19.0549 H   0  0  0  0  0  0  0  0  0  0  0  0
   17.6388   72.7293   17.5762 H   0  0  0  0  0  0  0  0  0  0  0  0
   17.4191   70.9465   17.5762 H   0  0  0  0  0  0  0  0  0  0  0  0
   20.0026   73.2796   17.4899 H   0  0  0  0  0  0  0  0  0  0  0  0
   21.2248   72.0244   18.0344 H   0  0  0  0  0  0  0  0  0  0  0  0
   19.1533   71.5474   15.8372 H   0  0  0  0  0  0  0  0  0  0  0  0
   20.8115   72.0352   15.5072 H   0  0  0  0  0  0  0  0  0  0  0  0
   20.2420   68.3084   17.9293 H   0  0  0  0  0  0  0  0  0  0  0  0
   17.7760   69.3228   19.9204 H   0  0  0  0  0  0  0  0  0  0  0  0
   19.3331   68.4151   20.1277 H   0  0  0  0  0  0  0  0  0  0  0  0
   18.6453   69.7433   22.1673 H   0  0  0  0  0  0  0  0  0  0  0  0
   20.2703   70.1952   21.4646 H   0  0  0  0  0  0  0  0  0  0  0  0
   17.6525   71.7062   21.1394 H   0  0  0  0  0  0  0  0  0  0  0  0
   20.5685   72.3322   20.1981 H   0  0  0  0  0  0  0  0  0  0  0  0
   19.5313   74.3529   19.0582 H   0  0  0  0  0  0  0  0  0  0  0  0
   20.7033   74.3699   21.4854 H   0  0  0  0  0  0  0  0  0  0  0  0
   19.7338   75.7669   21.2167 H   0  0  0  0  0  0  0  0  0  0  0  0
   19.8740   74.6615   24.0393 H   0  0  0  0  0  0  0  0  0  0  0  0
   16.2725   75.4381   24.0015 H   0  0  0  0  0  0  0  0  0  0  0  0
   16.7030   76.2881   25.5189 H   0  0  0  0  0  0  0  0  0  0  0  0
   16.2230   77.3520   22.9190 H   0  0  0  0  0  0  0  0  0  0  0  0
   18.6223   73.3518   25.6253 H   0  0  0  0  0  0  0  0  0  0  0  0
   17.0750   73.6337   24.8285 H   0  0  0  0  0  0  0  0  0  0  0  0
   18.9756   71.4264   24.3833 H   0  0  0  0  0  0  0  0  0  0  0  0
   17.4004   71.6346   23.6028 H   0  0  0  0  0  0  0  0  0  0  0  0
   20.1654   72.4308   22.6258 H   0  0  0  0  0  0  0  0  0  0  0  0
  2  1  1  6
  2  3  1  0
  3  4  1  0
  4  5  1  0
  5  6  2  0
  5  7  1  0
  7  8  2  0
  8  9  1  0
  9 10  1  0
 10 11  1  0
 11 12  1  0
 12 13  1  0
 13 14  1  0
 14 15  1  0
 15 16  1  6
 16 17  2  0
 16 18  1  0
 15 19  1  0
 19 20  1  0
 20 21  2  0
 20 22  1  0
 22 23  1  0
 19 24  1  0
 24 25  1  0
 25 26  1  0
  8  2  1  0
 26 11  1  0
 12  2  1  0
 18 13  1  0
 26 15  1  0
  1 27  1  0
  1 28  1  0
  1 29  1  0
  3 30  1  0
  3 31  1  0
  4 32  1  0
  4 33  1  0
  7 34  1  0
  9 35  1  0
  9 36  1  0
 10 37  1  0
 10 38  1  0
 11 39  1  6
 12 40  1  1
 13 41  1  6
 14 42  1  0
 14 43  1  0
 19 44  1  1
 22 45  1  0
 22 46  1  0
 23 47  1  0
 24 48  1  0
 24 49  1  0
 25 50  1  0
 25 51  1  0
 26 52  1  1
M  END
>  <meeko>  (6) 
{"is_sidechain": [false], "free_energy": -5.119, "intermolecular_energy": -6.138, "internal_energy": 0.079}

$$$$
