2AA2_AS4_crystal
 OpenBabel09272609533D

 52 56  0  0  0  0  0  0  0  0999 V2000
   19.8700   73.9850   20.2970 C   0  0  2  0  0  0  0  0  0  0  0  0
   17.4550   73.7690   20.9300 C   0  0  0  0  0  0  0  0  0  0  0  0
   18.9890   72.9270   22.5790 C   0  0  0  0  0  0  0  0  0  0  0  0
   18.6700   70.4240   19.0570 C   0  0  1  0  0  0  0  0  0  0  0  0
   19.7270   70.1490   17.9400 C   0  0  0  0  0  0  0  0  0  0  0  0
   19.4650   69.3550   16.8630 C   0  0  0  0  0  0  0  0  0  0  0  0
   18.0970   68.6670   16.6740 C   0  0  0  0  0  0  0  0  0  0  0  0
   19.0190   69.4610   20.2520 C   0  0  0  0  0  0  0  0  0  0  0  0
   20.7130   75.7070   21.8680 C   0  0  0  0  0  0  0  0  0  0  0  0
   19.1660   75.5790   21.9050 C   0  0  2  0  0  0  0  0  0  0  0  0
   18.4750   76.1360   23.2040 C   0  0  0  0  0  0  0  0  0  0  0  0
   16.9640   76.3730   23.1630 C   0  0  0  0  0  0  0  0  0  0  0  0
   21.1680   74.6940   20.7900 C   0  0  0  0  0  0  0  0  0  0  0  0
   18.8690   74.0950   21.5270 C   0  0  1  0  0  0  0  0  0  0  0  0
   20.0500   72.5000   19.8510 C   0  0  1  0  0  0  0  0  0  0  0  0
   18.6260   71.9600   19.5140 C   0  0  2  0  0  0  0  0  0  0  0  0
   17.6310   72.2430   20.7480 C   0  0  1  0  0  0  0  0  0  0  0  0
   18.1950   71.8110   22.0140 O   0  0  0  0  0  0  0  0  0  0  0  0
   18.3890   73.2210   23.8400 O   0  0  0  0  0  0  0  0  0  0  0  0
   17.7730   68.1020   15.6360 O   0  0  0  0  0  0  0  0  0  0  0  0
   17.1160   68.6840   17.8750 C   0  0  0  0  0  0  0  0  0  0  0  0
   17.2540   70.1010   18.4590 C   0  0  0  0  0  0  0  0  0  0  0  0
   21.1140   70.8000   18.1620 C   0  0  0  0  0  0  0  0  0  0  0  0
   20.9910   72.2890   18.6040 C   0  0  0  0  0  0  0  0  0  0  0  0
   19.1350   76.3620   24.1890 O   0  0  0  0  0  0  0  0  0  0  0  0
   16.4710   76.4530   24.5030 O   0  0  0  0  0  0  0  0  0  0  0  0
   19.5171   74.4590   19.4050 H   0  0  0  0  0  0  0  0  0  0  0  0
   17.2849   74.2693   19.9996 H   0  0  0  0  0  0  0  0  0  0  0  0
   16.6181   74.0733   21.5232 H   0  0  0  0  0  0  0  0  0  0  0  0
   20.2017   69.2103   16.1550 H   0  0  0  0  0  0  0  0  0  0  0  0
   19.9870   69.7060   20.6365 H   0  0  0  0  0  0  0  0  0  0  0  0
   19.0185   68.4485   19.9060 H   0  0  0  0  0  0  0  0  0  0  0  0
   18.2888   69.5738   21.0259 H   0  0  0  0  0  0  0  0  0  0  0  0
   21.1346   75.4593   22.8198 H   0  0  0  0  0  0  0  0  0  0  0  0
   21.0305   76.7041   21.6448 H   0  0  0  0  0  0  0  0  0  0  0  0
   18.7012   76.2316   21.1958 H   0  0  0  0  0  0  0  0  0  0  0  0
   16.4870   75.5625   22.6526 H   0  0  0  0  0  0  0  0  0  0  0  0
   16.7541   77.2851   22.6445 H   0  0  0  0  0  0  0  0  0  0  0  0
   21.6455   75.2028   19.9788 H   0  0  0  0  0  0  0  0  0  0  0  0
   21.8745   73.9927   21.1824 H   0  0  0  0  0  0  0  0  0  0  0  0
   20.5289   71.9767   20.6520 H   0  0  0  0  0  0  0  0  0  0  0  0
   18.2354   72.4883   18.6694 H   0  0  0  0  0  0  0  0  0  0  0  0
   16.7245   71.7218   20.5211 H   0  0  0  0  0  0  0  0  0  0  0  0
   17.3916   67.9468   18.5999 H   0  0  0  0  0  0  0  0  0  0  0  0
   16.1112   68.4575   17.5852 H   0  0  0  0  0  0  0  0  0  0  0  0
   17.0521   70.8051   17.6790 H   0  0  0  0  0  0  0  0  0  0  0  0
   16.5593   70.1647   19.2703 H   0  0  0  0  0  0  0  0  0  0  0  0
   21.6680   70.7549   17.2477 H   0  0  0  0  0  0  0  0  0  0  0  0
   21.6126   70.2622   18.9411 H   0  0  0  0  0  0  0  0  0  0  0  0
   21.9672   72.6504   18.8516 H   0  0  0  0  0  0  0  0  0  0  0  0
   20.5547   72.8245   17.7868 H   0  0  0  0  0  0  0  0  0  0  0  0
   16.6637   75.6241   24.9684 H   0  0  0  0  0  0  0  0  0  0  0  0
  1 13  1  0  0  0  0
  1 14  1  0  0  0  0
  1 15  1  0  0  0  0
  1 27  1  6  0  0  0
  2 14  1  0  0  0  0
  2 17  1  0  0  0  0
  2 28  1  0  0  0  0
  2 29  1  0  0  0  0
  3 19  2  0  0  0  0
  4  5  1  0  0  0  0
  4  8  1  1  0  0  0
  4 16  1  0  0  0  0
  4 22  1  0  0  0  0
  5  6  2  0  0  0  0
  5 23  1  0  0  0  0
  6  7  1  0  0  0  0
  6 30  1  0  0  0  0
  7 20  2  0  0  0  0
  7 21  1  0  0  0  0
  8 31  1  0  0  0  0
  8 32  1  0  0  0  0
  8 33  1  0  0  0  0
  9 10  1  0  0  0  0
  9 13  1  0  0  0  0
  9 34  1  0  0  0  0
  9 35  1  0  0  0  0
 10 11  1  0  0  0  0
 10 14  1  0  0  0  0
 10 36  1  6  0  0  0
 11 12  1  0  0  0  0
 11 25  2  0  0  0  0
 12 26  1  0  0  0  0
 12 37  1  0  0  0  0
 12 38  1  0  0  0  0
 13 39  1  0  0  0  0
 13 40  1  0  0  0  0
 14  3  1  1  0  0  0
 15 16  1  0  0  0  0
 15 24  1  0  0  0  0
 15 41  1  1  0  0  0
 16 17  1  0  0  0  0
 16 42  1  6  0  0  0
 17 18  1  0  0  0  0
 17 43  1  6  0  0  0
 18  3  1  0  0  0  0
 21 22  1  0  0  0  0
 21 44  1  0  0  0  0
 21 45  1  0  0  0  0
 22 46  1  0  0  0  0
 22 47  1  0  0  0  0
 23 24  1  0  0  0  0
 23 48  1  0  0  0  0
 23 49  1  0  0  0  0
 24 50  1  0  0  0  0
 24 51  1  0  0  0  0
 26 52  1  0  0  0  0
M  END
$$$$
