14807783
  -OEChem-01052601433D

 76 79  0     1  0  0  0  0  0999 V2000
    7.9670    0.3641   -1.1862 O   0  0  0  0  0  0  0  0  0  0  0  0
   -0.2640   -0.5516    0.2570 C   0  0  1  0  0  0  0  0  0  0  0  0
    0.4675    0.7200   -0.2165 C   0  0  2  0  0  0  0  0  0  0  0  0
    1.9132    0.8089    0.2824 C   0  0  1  0  0  0  0  0  0  0  0  0
    2.7064   -0.4418   -0.1946 C   0  0  1  0  0  0  0  0  0  0  0  0
   -1.6579   -0.2800   -0.3597 C   0  0  2  0  0  0  0  0  0  0  0  0
    0.4776   -1.7576   -0.3362 C   0  0  0  0  0  0  0  0  0  0  0  0
   -0.5010    1.8463    0.1314 C   0  0  0  0  0  0  0  0  0  0  0  0
    4.1992   -0.4167    0.3304 C   0  0  2  0  0  0  0  0  0  0  0  0
    1.9564   -1.7729    0.0884 C   0  0  0  0  0  0  0  0  0  0  0  0
   -1.8930    1.2238   -0.0841 C   0  0  0  0  0  0  0  0  0  0  0  0
    2.5883    2.0873   -0.2355 C   0  0  0  0  0  0  0  0  0  0  0  0
   -0.3521   -0.6915    1.7971 C   0  0  0  0  0  0  0  0  0  0  0  0
   -2.8012   -1.1575    0.1293 C   0  0  2  0  0  0  0  0  0  0  0  0
    4.8121    0.9855    0.1861 C   0  0  0  0  0  0  0  0  0  0  0  0
    5.0298   -1.4118   -0.5348 C   0  0  0  0  0  0  0  0  0  0  0  0
    4.0753    2.0775   -0.0851 C   0  0  0  0  0  0  0  0  0  0  0  0
    4.2783   -0.8293    1.8190 C   0  0  0  0  0  0  0  0  0  0  0  0
    6.3035    1.1218    0.3652 C   0  0  0  0  0  0  0  0  0  0  0  0
    6.5351   -1.3423   -0.3058 C   0  0  0  0  0  0  0  0  0  0  0  0
   -2.5171   -2.6324   -0.1638 C   0  0  0  0  0  0  0  0  0  0  0  0
   -4.0981   -0.7421   -0.5218 C   0  0  0  0  0  0  0  0  0  0  0  0
    7.0053    0.0807   -0.4735 C   0  0  0  0  0  0  0  0  0  0  0  0
   -5.1685   -0.3034    0.1588 C   0  0  0  0  0  0  0  0  0  0  0  0
   -6.4717    0.1078   -0.4955 C   0  0  2  0  0  0  0  0  0  0  0  0
   -6.8228    1.6054   -0.2519 C   0  0  0  0  0  0  0  0  0  0  0  0
   -7.5742   -0.8742   -0.0406 C   0  0  0  0  0  0  0  0  0  0  0  0
   -5.7899    2.5912   -0.8077 C   0  0  0  0  0  0  0  0  0  0  0  0
   -7.0609    1.8953    1.2366 C   0  0  0  0  0  0  0  0  0  0  0  0
   -7.3426   -2.3107   -0.4883 C   0  0  0  0  0  0  0  0  0  0  0  0
    0.5191    0.6950   -1.3184 H   0  0  0  0  0  0  0  0  0  0  0  0
    1.9186    0.8507    1.3776 H   0  0  0  0  0  0  0  0  0  0  0  0
    2.7524   -0.3640   -1.2932 H   0  0  0  0  0  0  0  0  0  0  0  0
   -1.5776   -0.3947   -1.4528 H   0  0  0  0  0  0  0  0  0  0  0  0
    0.4264   -1.7349   -1.4324 H   0  0  0  0  0  0  0  0  0  0  0  0
    0.0515   -2.7112   -0.0224 H   0  0  0  0  0  0  0  0  0  0  0  0
   -0.3547    2.7241   -0.5062 H   0  0  0  0  0  0  0  0  0  0  0  0
   -0.3839    2.1691    1.1720 H   0  0  0  0  0  0  0  0  0  0  0  0
    2.0036   -2.0215    1.1525 H   0  0  0  0  0  0  0  0  0  0  0  0
    2.4518   -2.5949   -0.4403 H   0  0  0  0  0  0  0  0  0  0  0  0
   -2.5093    1.3948    0.8059 H   0  0  0  0  0  0  0  0  0  0  0  0
   -2.4001    1.6970   -0.9325 H   0  0  0  0  0  0  0  0  0  0  0  0
    2.1863    2.9498    0.3097 H   0  0  0  0  0  0  0  0  0  0  0  0
    2.3567    2.2466   -1.2959 H   0  0  0  0  0  0  0  0  0  0  0  0
   -0.9495    0.1034    2.2551 H   0  0  0  0  0  0  0  0  0  0  0  0
   -0.8060   -1.6451    2.0853 H   0  0  0  0  0  0  0  0  0  0  0  0
    0.6289   -0.6606    2.2789 H   0  0  0  0  0  0  0  0  0  0  0  0
   -2.9192   -1.0526    1.2152 H   0  0  0  0  0  0  0  0  0  0  0  0
    4.8417   -1.2087   -1.5984 H   0  0  0  0  0  0  0  0  0  0  0  0
    4.7038   -2.4425   -0.3531 H   0  0  0  0  0  0  0  0  0  0  0  0
    4.5660    3.0417   -0.1956 H   0  0  0  0  0  0  0  0  0  0  0  0
    5.2857   -0.7132    2.2323 H   0  0  0  0  0  0  0  0  0  0  0  0
    3.6099   -0.2261    2.4423 H   0  0  0  0  0  0  0  0  0  0  0  0
    4.0132   -1.8820    1.9609 H   0  0  0  0  0  0  0  0  0  0  0  0
    6.6613    2.1101    0.0539 H   0  0  0  0  0  0  0  0  0  0  0  0
    6.5910    0.9806    1.4115 H   0  0  0  0  0  0  0  0  0  0  0  0
    7.0502   -1.9769   -1.0349 H   0  0  0  0  0  0  0  0  0  0  0  0
    6.8126   -1.6892    0.6944 H   0  0  0  0  0  0  0  0  0  0  0  0
   -1.8608   -3.0729    0.5898 H   0  0  0  0  0  0  0  0  0  0  0  0
   -3.4431   -3.2197   -0.1188 H   0  0  0  0  0  0  0  0  0  0  0  0
   -2.0917   -2.7846   -1.1613 H   0  0  0  0  0  0  0  0  0  0  0  0
   -4.1483   -0.8070   -1.6065 H   0  0  0  0  0  0  0  0  0  0  0  0
   -5.1161   -0.2523    1.2434 H   0  0  0  0  0  0  0  0  0  0  0  0
   -6.3710   -0.0085   -1.5843 H   0  0  0  0  0  0  0  0  0  0  0  0
   -7.7672    1.8047   -0.7766 H   0  0  0  0  0  0  0  0  0  0  0  0
   -7.6766   -0.8697    1.0511 H   0  0  0  0  0  0  0  0  0  0  0  0
   -8.5357   -0.5393   -0.4492 H   0  0  0  0  0  0  0  0  0  0  0  0
   -6.1515    3.6212   -0.7177 H   0  0  0  0  0  0  0  0  0  0  0  0
   -5.6001    2.3950   -1.8679 H   0  0  0  0  0  0  0  0  0  0  0  0
   -4.8380    2.5244   -0.2717 H   0  0  0  0  0  0  0  0  0  0  0  0
   -7.8655    1.2797    1.6483 H   0  0  0  0  0  0  0  0  0  0  0  0
   -7.3630    2.9403    1.3720 H   0  0  0  0  0  0  0  0  0  0  0  0
   -6.1601    1.7397    1.8379 H   0  0  0  0  0  0  0  0  0  0  0  0
   -7.2131   -2.3679   -1.5737 H   0  0  0  0  0  0  0  0  0  0  0  0
   -6.4616   -2.7491   -0.0101 H   0  0  0  0  0  0  0  0  0  0  0  0
   -8.2048   -2.9297   -0.2192 H   0  0  0  0  0  0  0  0  0  0  0  0
  1 23  2  0  0  0  0
  2  3  1  0  0  0  0
  2  6  1  0  0  0  0
  2  7  1  0  0  0  0
  2 13  1  0  0  0  0
  3  4  1  0  0  0  0
  3  8  1  0  0  0  0
  3 31  1  0  0  0  0
  4  5  1  0  0  0  0
  4 12  1  0  0  0  0
  4 32  1  0  0  0  0
  5  9  1  0  0  0  0
  5 10  1  0  0  0  0
  5 33  1  0  0  0  0
  6 11  1  0  0  0  0
  6 14  1  0  0  0  0
  6 34  1  0  0  0  0
  7 10  1  0  0  0  0
  7 35  1  0  0  0  0
  7 36  1  0  0  0  0
  8 11  1  0  0  0  0
  8 37  1  0  0  0  0
  8 38  1  0  0  0  0
  9 15  1  0  0  0  0
  9 16  1  0  0  0  0
  9 18  1  0  0  0  0
 10 39  1  0  0  0  0
 10 40  1  0  0  0  0
 11 41  1  0  0  0  0
 11 42  1  0  0  0  0
 12 17  1  0  0  0  0
 12 43  1  0  0  0  0
 12 44  1  0  0  0  0
 13 45  1  0  0  0  0
 13 46  1  0  0  0  0
 13 47  1  0  0  0  0
 14 21  1  0  0  0  0
 14 22  1  0  0  0  0
 14 48  1  0  0  0  0
 15 17  2  0  0  0  0
 15 19  1  0  0  0  0
 16 20  1  0  0  0  0
 16 49  1  0  0  0  0
 16 50  1  0  0  0  0
 17 51  1  0  0  0  0
 18 52  1  0  0  0  0
 18 53  1  0  0  0  0
 18 54  1  0  0  0  0
 19 23  1  0  0  0  0
 19 55  1  0  0  0  0
 19 56  1  0  0  0  0
 20 23  1  0  0  0  0
 20 57  1  0  0  0  0
 20 58  1  0  0  0  0
 21 59  1  0  0  0  0
 21 60  1  0  0  0  0
 21 61  1  0  0  0  0
 22 24  2  0  0  0  0
 22 62  1  0  0  0  0
 24 25  1  0  0  0  0
 24 63  1  0  0  0  0
 25 26  1  0  0  0  0
 25 27  1  0  0  0  0
 25 64  1  0  0  0  0
 26 28  1  0  0  0  0
 26 29  1  0  0  0  0
 26 65  1  0  0  0  0
 27 30  1  0  0  0  0
 27 66  1  0  0  0  0
 27 67  1  0  0  0  0
 28 68  1  0  0  0  0
 28 69  1  0  0  0  0
 28 70  1  0  0  0  0
 29 71  1  0  0  0  0
 29 72  1  0  0  0  0
 29 73  1  0  0  0  0
 30 74  1  0  0  0  0
 30 75  1  0  0  0  0
 30 76  1  0  0  0  0
M  END
> <PUBCHEM_COMPOUND_CID>
14807783

> <PUBCHEM_CONFORMER_RMSD>
0.8

> <PUBCHEM_CONFORMER_DIVERSEORDER>
1
20
24
30
27
19
22
13
10
28
14
18
15
26
29
25
23
5
2
21
6
4
12
16
7
11
3
8
9
17

> <PUBCHEM_MMFF94_PARTIAL_CHARGES>
15
1 -0.57
12 0.14
14 0.14
15 -0.28
17 -0.29
19 0.2
20 0.06
22 -0.29
23 0.45
24 -0.29
25 0.14
51 0.15
62 0.15
63 0.15
9 0.14

> <PUBCHEM_EFFECTIVE_ROTOR_COUNT>
6.8

> <PUBCHEM_PHARMACOPHORE_FEATURES>
9
1 1 acceptor
1 21 hydrophobe
1 30 hydrophobe
3 26 28 29 hydrophobe
4 24 25 26 27 hydrophobe
5 2 3 6 8 11 rings
6 2 3 4 5 7 10 rings
6 4 5 9 12 15 17 rings
6 9 15 16 19 20 23 rings

> <PUBCHEM_HEAVY_ATOM_COUNT>
30

> <PUBCHEM_ATOM_DEF_STEREO_COUNT>
8

> <PUBCHEM_ATOM_UDEF_STEREO_COUNT>
0

> <PUBCHEM_BOND_DEF_STEREO_COUNT>
1

> <PUBCHEM_BOND_UDEF_STEREO_COUNT>
0

> <PUBCHEM_ISOTOPIC_ATOM_COUNT>
0

> <PUBCHEM_COMPONENT_COUNT>
1

> <PUBCHEM_CACTVS_TAUTO_COUNT>
5

> <PUBCHEM_CONFORMER_ID>
00E1F2E700000001

> <PUBCHEM_MMFF94_ENERGY>
82.7022

> <PUBCHEM_FEATURE_SELFOVERLAP>
46.045

> <PUBCHEM_SHAPE_FINGERPRINT>
10 15 18113622249416362449
10050765 1 18122905597054689687
100830 39 18411699860138439653
10299344 5 18410012143695250663
10906281 52 18410022026404702515
11578080 2 17200774873157965616
11719270 70 18131348600657816559
12236239 1 18202002131769390139
13533116 47 16056886793187574166
13811026 1 18410008874924451723
14251764 18 18187080667773978931
14294032 229 18115309947345235540
14790565 3 18409729548080456157
14856354 85 17275097363203595413
14933364 13 18409166606331756757
15021287 119 17530968003826796357
15131766 46 15193283219318982696
15183329 4 18408879625507568393
15461852 350 17275094039099387653
1577012 14 18334571318251032851
15849732 13 18272931643962247943
16087824 20 18410857616334483781
18608769 82 18408882906456855645
18681886 176 18342451569062532137
19611394 137 17897457301438783323
21033648 29 18271511088177549624
21130935 74 18342454829275714131
21267235 1 18411985775272070743
21315763 28 18411135857717090159
21792934 111 18341320112449099520
221357 26 18412826881057685056
23559900 14 18339076103299984936
249057 3 18341612654712759782
255183 451 17983863281475172838
3004659 81 18335136514061016544
335352 9 18410856589720456830
350125 39 18409728439367159060
3633792 109 17775012240945650578
397830 11 14707786133307081861
4073 2 17969224597677357810
4098825 35 18412261735964395535
5104073 3 18261949747482984019
59755656 215 18411419492856525094
59755656 520 17240199949963059011
6086070 43 17418087750040126513
6328613 192 18413671318524728441
7226269 152 18201719527464532089
9996256 80 18408036334622882509

> <PUBCHEM_SHAPE_MULTIPOLES>
611.52
22.4
2.53
1.02
11.14
0.24
-0.38
1.97
2.91
2.51
0.22
-0.26
-0.03
-0.43

> <PUBCHEM_SHAPE_SELFOVERLAP>
1270.732

> <PUBCHEM_SHAPE_VOLUME>
348.1

> <PUBCHEM_COORDINATE_TYPE>
2
5
10

$$$$
