MOL008407_docked
     RDKit          3D

 76 79  0  0  0  0  0  0  0  0999 V2000
   16.0730   75.2820   20.4530 C   0  0  0  0  0  0  0  0  0  0  0  0
   16.3490   75.3520   21.9520 C   0  0  0  0  0  0  0  0  0  0  0  0
   17.1200   76.6250   22.3680 C   0  0  2  0  0  0  0  0  0  0  0  0
   18.5110   76.6250   21.7670 C   0  0  0  0  0  0  0  0  0  0  0  0
   19.4990   75.8070   22.1630 C   0  0  0  0  0  0  0  0  0  0  0  0
   20.8980   75.8260   21.5770 C   0  0  1  0  0  0  0  0  0  0  0  0
   21.8590   75.3050   22.6460 C   0  0  0  0  0  0  0  0  0  0  0  0
   20.9470   75.0140   20.2570 C   0  0  1  0  0  0  0  0  0  0  0  0
   22.4050   74.6230   19.8670 C   0  0  0  0  0  0  0  0  0  0  0  0
   22.3280   73.2890   19.1130 C   0  0  0  0  0  0  0  0  0  0  0  0
   20.8360   73.0730   18.9000 C   0  0  1  0  0  0  0  0  0  0  0  0
   20.3560   71.6600   18.5500 C   0  0  2  0  0  0  0  0  0  0  0  0
   21.0340   71.1550   17.2660 C   0  0  0  0  0  0  0  0  0  0  0  0
   20.3730   69.9460   16.6820 C   0  0  0  0  0  0  0  0  0  0  0  0
   19.1560   69.4910   17.0300 C   0  0  0  0  0  0  0  0  0  0  0  0
   18.6200   68.2230   16.4010 C   0  0  0  0  0  0  0  0  0  0  0  0
   17.1920   68.4140   15.9340 C   0  0  0  0  0  0  0  0  0  0  0  0
   16.7890   67.9490   14.8670 O   0  0  0  0  0  0  0  0  0  0  0  0
   16.2440   69.0550   16.9170 C   0  0  0  0  0  0  0  0  0  0  0  0
   16.8370   70.3530   17.4520 C   0  0  0  0  0  0  0  0  0  0  0  0
   18.2640   70.2080   18.0570 C   0  0  1  0  0  0  0  0  0  0  0  0
   18.2050   69.3430   19.3380 C   0  0  0  0  0  0  0  0  0  0  0  0
   18.8130   71.6590   18.3670 C   0  0  1  0  0  0  0  0  0  0  0  0
   18.0780   72.3800   19.5260 C   0  0  0  0  0  0  0  0  0  0  0  0
   18.6790   73.7480   19.8920 C   0  0  0  0  0  0  0  0  0  0  0  0
   20.1880   73.6540   20.1780 C   0  0  2  0  0  0  0  0  0  0  0  0
   20.4410   72.8030   21.4450 C   0  0  0  0  0  0  0  0  0  0  0  0
   17.1310   76.8030   23.9160 C   0  0  0  0  0  0  0  0  0  0  0  0
   17.6130   75.5330   24.6260 C   0  0  0  0  0  0  0  0  0  0  0  0
   15.7900   77.2470   24.5110 C   0  0  0  0  0  0  0  0  0  0  0  0
   15.0191   75.0147   20.2863 H   0  0  0  0  0  0  0  0  0  0  0  0
   16.2797   76.2610   19.9960 H   0  0  0  0  0  0  0  0  0  0  0  0
   16.7213   74.5198   19.9960 H   0  0  0  0  0  0  0  0  0  0  0  0
   15.3875   75.3349   22.4861 H   0  0  0  0  0  0  0  0  0  0  0  0
   16.9791   74.4881   22.2100 H   0  0  0  0  0  0  0  0  0  0  0  0
   16.5934   77.5018   21.9632 H   0  0  0  0  0  0  0  0  0  0  0  0
   18.7241   77.3384   20.9573 H   0  0  0  0  0  0  0  0  0  0  0  0
   19.2812   75.0801   22.9594 H   0  0  0  0  0  0  0  0  0  0  0  0
   21.2032   76.8470   21.3044 H   0  0  0  0  0  0  0  0  0  0  0  0
   21.4520   75.5256   23.6438 H   0  0  0  0  0  0  0  0  0  0  0  0
   21.9801   74.2177   22.5316 H   0  0  0  0  0  0  0  0  0  0  0  0
   22.8362   75.7968   22.5316 H   0  0  0  0  0  0  0  0  0  0  0  0
   20.4455   75.7349   19.5946 H   0  0  0  0  0  0  0  0  0  0  0  0
   22.8431   75.3973   19.2201 H   0  0  0  0  0  0  0  0  0  0  0  0
   23.0383   74.5310   20.7617 H   0  0  0  0  0  0  0  0  0  0  0  0
   22.8554   73.3531   18.1498 H   0  0  0  0  0  0  0  0  0  0  0  0
   22.8014   72.4629   19.6639 H   0  0  0  0  0  0  0  0  0  0  0  0
   20.5254   73.5799   17.9745 H   0  0  0  0  0  0  0  0  0  0  0  0
   20.6280   70.9852   19.3750 H   0  0  0  0  0  0  0  0  0  0  0  0
   21.0096   71.9614   16.5182 H   0  0  0  0  0  0  0  0  0  0  0  0
   22.0616   70.8669   17.5326 H   0  0  0  0  0  0  0  0  0  0  0  0
   20.9236   69.3877   15.9105 H   0  0  0  0  0  0  0  0  0  0  0  0
   19.2483   67.9551   15.5387 H   0  0  0  0  0  0  0  0  0  0  0  0
   18.6396   67.4214   17.1540 H   0  0  0  0  0  0  0  0  0  0  0  0
   15.2905   69.2719   16.4133 H   0  0  0  0  0  0  0  0  0  0  0  0
   16.0772   68.3643   17.7567 H   0  0  0  0  0  0  0  0  0  0  0  0
   16.8864   71.0754   16.6240 H   0  0  0  0  0  0  0  0  0  0  0  0
   16.1813   70.6830   18.2712 H   0  0  0  0  0  0  0  0  0  0  0  0
   18.2495   69.9948   20.2229 H   0  0  0  0  0  0  0  0  0  0  0  0
   17.2657   68.7706   19.3510 H   0  0  0  0  0  0  0  0  0  0  0  0
   19.0579   68.6484   19.3510 H   0  0  0  0  0  0  0  0  0  0  0  0
   18.5839   72.2605   17.4750 H   0  0  0  0  0  0  0  0  0  0  0  0
   17.0293   72.5307   19.2301 H   0  0  0  0  0  0  0  0  0  0  0  0
   18.1790   71.7396   20.4146 H   0  0  0  0  0  0  0  0  0  0  0  0
   18.5185   74.4425   19.0542 H   0  0  0  0  0  0  0  0  0  0  0  0
   18.1807   74.1059   20.8050 H   0  0  0  0  0  0  0  0  0  0  0  0
   20.2589   73.4154   22.3404 H   0  0  0  0  0  0  0  0  0  0  0  0
   19.7611   71.9383   21.4477 H   0  0  0  0  0  0  0  0  0  0  0  0
   21.4829   72.4502   21.4477 H   0  0  0  0  0  0  0  0  0  0  0  0
   17.8429   77.6224   24.0942 H   0  0  0  0  0  0  0  0  0  0  0  0
   17.5578   75.6783   25.7150 H   0  0  0  0  0  0  0  0  0  0  0  0
   16.9738   74.6859   24.3363 H   0  0  0  0  0  0  0  0  0  0  0  0
   18.6532   75.3233   24.3363 H   0  0  0  0  0  0  0  0  0  0  0  0
   15.8514   77.2267   25.6091 H   0  0  0  0  0  0  0  0  0  0  0  0
   15.5604   78.2691   24.1755 H   0  0  0  0  0  0  0  0  0  0  0  0
   14.9958   76.5639   24.1755 H   0  0  0  0  0  0  0  0  0  0  0  0
  1  2  1  0
  2  3  1  0
  3  4  1  0
  4  5  2  0
  5  6  1  0
  6  7  1  0
  6  8  1  0
  8  9  1  0
  9 10  1  0
 10 11  1  0
 11 12  1  0
 12 13  1  0
 13 14  1  0
 14 15  2  0
 15 16  1  0
 16 17  1  0
 17 18  2  0
 17 19  1  0
 19 20  1  0
 20 21  1  0
 21 22  1  1
 21 23  1  0
 23 24  1  0
 24 25  1  0
 25 26  1  0
 26 27  1  1
  3 28  1  0
 28 29  1  0
 28 30  1  0
 26  8  1  0
 26 11  1  0
 23 12  1  0
 21 15  1  0
  1 31  1  0
  1 32  1  0
  1 33  1  0
  2 34  1  0
  2 35  1  0
  3 36  1  6
  4 37  1  0
  5 38  1  0
  6 39  1  6
  7 40  1  0
  7 41  1  0
  7 42  1  0
  8 43  1  6
  9 44  1  0
  9 45  1  0
 10 46  1  0
 10 47  1  0
 11 48  1  6
 12 49  1  1
 13 50  1  0
 13 51  1  0
 14 52  1  0
 16 53  1  0
 16 54  1  0
 19 55  1  0
 19 56  1  0
 20 57  1  0
 20 58  1  0
 22 59  1  0
 22 60  1  0
 22 61  1  0
 23 62  1  6
 24 63  1  0
 24 64  1  0
 25 65  1  0
 25 66  1  0
 27 67  1  0
 27 68  1  0
 27 69  1  0
 28 70  1  0
 29 71  1  0
 29 72  1  0
 29 73  1  0
 30 74  1  0
 30 75  1  0
 30 76  1  0
M  END
>  <meeko>  (1) 
{"is_sidechain": [false], "free_energy": -3.929, "intermolecular_energy": -5.078, "internal_energy": 0.268}

$$$$
MOL008407_docked
     RDKit          3D

 76 79  0  0  0  0  0  0  0  0999 V2000
   20.8160   62.6020   18.1200 C   0  0  0  0  0  0  0  0  0  0  0  0
   19.8890   63.7810   17.8440 C   0  0  0  0  0  0  0  0  0  0  0  0
   19.6800   64.0480   16.3370 C   0  0  2  0  0  0  0  0  0  0  0  0
   19.3460   65.5060   16.0960 C   0  0  0  0  0  0  0  0  0  0  0  0
   19.3590   66.4470   17.0540 C   0  0  0  0  0  0  0  0  0  0  0  0
   18.9990   67.9010   16.8140 C   0  0  1  0  0  0  0  0  0  0  0  0
   18.0160   67.9520   15.6440 C   0  0  0  0  0  0  0  0  0  0  0  0
   18.4440   68.5460   18.1110 C   0  0  1  0  0  0  0  0  0  0  0  0
   18.5860   67.5980   19.3400 C   0  0  0  0  0  0  0  0  0  0  0  0
   18.7680   68.4880   20.5770 C   0  0  0  0  0  0  0  0  0  0  0  0
   18.5030   69.8950   20.0590 C   0  0  1  0  0  0  0  0  0  0  0  0
   18.9920   71.0770   20.9050 C   0  0  2  0  0  0  0  0  0  0  0  0
   18.3770   71.0320   22.3120 C   0  0  0  0  0  0  0  0  0  0  0  0
   18.5320   72.3150   23.0690 C   0  0  0  0  0  0  0  0  0  0  0  0
   18.8950   73.4900   22.5230 C   0  0  0  0  0  0  0  0  0  0  0  0
   19.0680   74.7060   23.4080 C   0  0  0  0  0  0  0  0  0  0  0  0
   18.3710   75.9110   22.8110 C   0  0  0  0  0  0  0  0  0  0  0  0
   17.7410   76.7090   23.5070 O   0  0  0  0  0  0  0  0  0  0  0  0
   18.6260   76.1790   21.3480 C   0  0  0  0  0  0  0  0  0  0  0  0
   18.3700   74.9200   20.5300 C   0  0  0  0  0  0  0  0  0  0  0  0
   19.1480   73.6630   21.0170 C   0  0  1  0  0  0  0  0  0  0  0  0
   20.6660   73.8700   20.8000 C   0  0  0  0  0  0  0  0  0  0  0  0
   18.6160   72.4130   20.2070 C   0  0  1  0  0  0  0  0  0  0  0  0
   18.9960   72.4240   18.7030 C   0  0  0  0  0  0  0  0  0  0  0  0
   18.5650   71.1610   17.9400 C   0  0  0  0  0  0  0  0  0  0  0  0
   19.0730   69.8780   18.6210 C   0  0  2  0  0  0  0  0  0  0  0  0
   20.6180   69.8180   18.5660 C   0  0  0  0  0  0  0  0  0  0  0  0
   18.6240   63.0770   15.7280 C   0  0  0  0  0  0  0  0  0  0  0  0
   17.9080   62.2690   16.8160 C   0  0  0  0  0  0  0  0  0  0  0  0
   19.1800   62.1250   14.6630 C   0  0  0  0  0  0  0  0  0  0  0  0
   20.9229   62.4661   19.2063 H   0  0  0  0  0  0  0  0  0  0  0  0
   20.3909   61.6896   17.6764 H   0  0  0  0  0  0  0  0  0  0  0  0
   21.8029   62.7999   17.6764 H   0  0  0  0  0  0  0  0  0  0  0  0
   18.9107   63.5716   18.3014 H   0  0  0  0  0  0  0  0  0  0  0  0
   20.3613   64.6769   18.2733 H   0  0  0  0  0  0  0  0  0  0  0  0
   20.6235   63.8421   15.8103 H   0  0  0  0  0  0  0  0  0  0  0  0
   19.0765   65.8123   15.0745 H   0  0  0  0  0  0  0  0  0  0  0  0
   19.6475   66.1460   18.0719 H   0  0  0  0  0  0  0  0  0  0  0  0
   19.8868   68.4933   16.5475 H   0  0  0  0  0  0  0  0  0  0  0  0
   16.9877   68.0054   16.0311 H   0  0  0  0  0  0  0  0  0  0  0  0
   18.2231   68.8406   15.0296 H   0  0  0  0  0  0  0  0  0  0  0  0
   18.1300   67.0467   15.0296 H   0  0  0  0  0  0  0  0  0  0  0  0
   17.4170   68.7503   17.7742 H   0  0  0  0  0  0  0  0  0  0  0  0
   17.6811   66.9820   19.4481 H   0  0  0  0  0  0  0  0  0  0  0  0
   19.4436   66.9205   19.2152 H   0  0  0  0  0  0  0  0  0  0  0  0
   18.0470   68.2181   21.3627 H   0  0  0  0  0  0  0  0  0  0  0  0
   19.7645   68.3841   21.0310 H   0  0  0  0  0  0  0  0  0  0  0  0
   17.4235   70.1010   20.1063 H   0  0  0  0  0  0  0  0  0  0  0  0
   20.0856   71.0088   21.0017 H   0  0  0  0  0  0  0  0  0  0  0  0
   17.3037   70.8106   22.2167 H   0  0  0  0  0  0  0  0  0  0  0  0
   18.9128   70.2546   22.8764 H   0  0  0  0  0  0  0  0  0  0  0  0
   18.3346   72.2953   24.1510 H   0  0  0  0  0  0  0  0  0  0  0  0
   18.6382   74.4950   24.3983 H   0  0  0  0  0  0  0  0  0  0  0  0
   20.1418   74.9279   23.4953 H   0  0  0  0  0  0  0  0  0  0  0  0
   17.9548   76.9792   21.0029 H   0  0  0  0  0  0  0  0  0  0  0  0
   19.6743   76.4853   21.2167 H   0  0  0  0  0  0  0  0  0  0  0  0
   17.2940   74.6957   20.5728 H   0  0  0  0  0  0  0  0  0  0  0  0
   18.7257   75.1320   19.5109 H   0  0  0  0  0  0  0  0  0  0  0  0
   21.1698   73.9387   21.7754 H   0  0  0  0  0  0  0  0  0  0  0  0
   21.0750   73.0193   20.2352 H   0  0  0  0  0  0  0  0  0  0  0  0
   20.8323   74.7991   20.2352 H   0  0  0  0  0  0  0  0  0  0  0  0
   17.5192   72.4964   20.2178 H   0  0  0  0  0  0  0  0  0  0  0  0
   18.5157   73.2939   18.2312 H   0  0  0  0  0  0  0  0  0  0  0  0
   20.0940   72.4672   18.6525 H   0  0  0  0  0  0  0  0  0  0  0  0
   17.4663   71.1294   17.8964 H   0  0  0  0  0  0  0  0  0  0  0  0
   19.0007   71.2069   16.9310 H   0  0  0  0  0  0  0  0  0  0  0  0
   21.0210   69.8024   19.5894 H   0  0  0  0  0  0  0  0  0  0  0  0
   20.9309   68.9070   18.0347 H   0  0  0  0  0  0  0  0  0  0  0  0
   21.0006   70.7020   18.0347 H   0  0  0  0  0  0  0  0  0  0  0  0
   17.9050   63.7358   15.2189 H   0  0  0  0  0  0  0  0  0  0  0  0
   18.2250   62.6267   17.8068 H   0  0  0  0  0  0  0  0  0  0  0  0
   16.8204   62.3959   16.7110 H   0  0  0  0  0  0  0  0  0  0  0  0
   18.1648   61.2046   16.7110 H   0  0  0  0  0  0  0  0  0  0  0  0
   19.6764   61.2751   15.1542 H   0  0  0  0  0  0  0  0  0  0  0  0
   18.3557   61.7554   14.0353 H   0  0  0  0  0  0  0  0  0  0  0  0
   19.9069   62.6613   14.0353 H   0  0  0  0  0  0  0  0  0  0  0  0
  1  2  1  0
  2  3  1  0
  3  4  1  0
  4  5  2  0
  5  6  1  0
  6  7  1  0
  6  8  1  0
  8  9  1  0
  9 10  1  0
 10 11  1  0
 11 12  1  0
 12 13  1  0
 13 14  1  0
 14 15  2  0
 15 16  1  0
 16 17  1  0
 17 18  2  0
 17 19  1  0
 19 20  1  0
 20 21  1  0
 21 22  1  1
 21 23  1  0
 23 24  1  0
 24 25  1  0
 25 26  1  0
 26 27  1  1
  3 28  1  0
 28 29  1  0
 28 30  1  0
 26  8  1  0
 26 11  1  0
 23 12  1  0
 21 15  1  0
  1 31  1  0
  1 32  1  0
  1 33  1  0
  2 34  1  0
  2 35  1  0
  3 36  1  6
  4 37  1  0
  5 38  1  0
  6 39  1  6
  7 40  1  0
  7 41  1  0
  7 42  1  0
  8 43  1  6
  9 44  1  0
  9 45  1  0
 10 46  1  0
 10 47  1  0
 11 48  1  6
 12 49  1  1
 13 50  1  0
 13 51  1  0
 14 52  1  0
 16 53  1  0
 16 54  1  0
 19 55  1  0
 19 56  1  0
 20 57  1  0
 20 58  1  0
 22 59  1  0
 22 60  1  0
 22 61  1  0
 23 62  1  6
 24 63  1  0
 24 64  1  0
 25 65  1  0
 25 66  1  0
 27 67  1  0
 27 68  1  0
 27 69  1  0
 28 70  1  0
 29 71  1  0
 29 72  1  0
 29 73  1  0
 30 74  1  0
 30 75  1  0
 30 76  1  0
M  END
>  <meeko>  (2) 
{"is_sidechain": [false], "free_energy": -3.47, "intermolecular_energy": -3.44, "internal_energy": -0.777}

$$$$
MOL008407_docked
     RDKit          3D

 76 79  0  0  0  0  0  0  0  0999 V2000
   16.7650   77.2320   23.7370 C   0  0  0  0  0  0  0  0  0  0  0  0
   16.9860   75.7720   23.3560 C   0  0  0  0  0  0  0  0  0  0  0  0
   18.1650   75.1190   24.1120 C   0  0  2  0  0  0  0  0  0  0  0  0
   19.4680   75.3680   23.3820 C   0  0  0  0  0  0  0  0  0  0  0  0
   19.5470   75.8380   22.1270 C   0  0  0  0  0  0  0  0  0  0  0  0
   20.8530   76.0620   21.3900 C   0  0  1  0  0  0  0  0  0  0  0  0
   21.9950   75.7410   22.3550 C   0  0  0  0  0  0  0  0  0  0  0  0
   20.8960   75.2200   20.0880 C   0  0  1  0  0  0  0  0  0  0  0  0
   22.3550   74.8580   19.6760 C   0  0  0  0  0  0  0  0  0  0  0  0
   22.2950   73.5050   18.9530 C   0  0  0  0  0  0  0  0  0  0  0  0
   20.8060   73.2470   18.7770 C   0  0  1  0  0  0  0  0  0  0  0  0
   20.3550   71.8150   18.4690 C   0  0  2  0  0  0  0  0  0  0  0  0
   21.0180   71.2970   17.1830 C   0  0  0  0  0  0  0  0  0  0  0  0
   20.3760   70.0590   16.6400 C   0  0  0  0  0  0  0  0  0  0  0  0
   19.1780   69.5820   17.0250 C   0  0  0  0  0  0  0  0  0  0  0  0
   18.6620   68.2870   16.4360 C   0  0  0  0  0  0  0  0  0  0  0  0
   17.2200   68.4320   15.9960 C   0  0  0  0  0  0  0  0  0  0  0  0
   16.8070   67.9320   14.9480 O   0  0  0  0  0  0  0  0  0  0  0  0
   16.2760   69.0710   16.9840 C   0  0  0  0  0  0  0  0  0  0  0  0
   16.8480   70.3950   17.4770 C   0  0  0  0  0  0  0  0  0  0  0  0
   18.2900   70.3000   18.0540 C   0  0  1  0  0  0  0  0  0  0  0  0
   18.2800   69.4640   19.3550 C   0  0  0  0  0  0  0  0  0  0  0  0
   18.8090   71.7710   18.3200 C   0  0  1  0  0  0  0  0  0  0  0  0
   18.0800   72.5000   19.4780 C   0  0  0  0  0  0  0  0  0  0  0  0
   18.6530   73.8900   19.8000 C   0  0  0  0  0  0  0  0  0  0  0  0
   20.1700   73.8410   20.0560 C   0  0  2  0  0  0  0  0  0  0  0  0
   20.4710   73.0260   21.3360 C   0  0  0  0  0  0  0  0  0  0  0  0
   17.9010   73.6070   24.3810 C   0  0  0  0  0  0  0  0  0  0  0  0
   18.3060   73.2090   25.8060 C   0  0  0  0  0  0  0  0  0  0  0  0
   18.5650   72.6600   23.3750 C   0  0  0  0  0  0  0  0  0  0  0  0
   16.7506   77.3269   24.8328 H   0  0  0  0  0  0  0  0  0  0  0  0
   17.5805   77.8456   23.3265 H   0  0  0  0  0  0  0  0  0  0  0  0
   15.8044   77.5767   23.3265 H   0  0  0  0  0  0  0  0  0  0  0  0
   16.0692   75.2083   23.5836 H   0  0  0  0  0  0  0  0  0  0  0  0
   17.2301   75.7466   22.2837 H   0  0  0  0  0  0  0  0  0  0  0  0
   18.2539   75.5934   25.1005 H   0  0  0  0  0  0  0  0  0  0  0  0
   20.4069   75.1506   23.9122 H   0  0  0  0  0  0  0  0  0  0  0  0
   18.6094   76.0744   21.6026 H   0  0  0  0  0  0  0  0  0  0  0  0
   20.9539   77.1087   21.0672 H   0  0  0  0  0  0  0  0  0  0  0  0
   21.6388   75.8411   23.3909 H   0  0  0  0  0  0  0  0  0  0  0  0
   22.3408   74.7108   22.1841 H   0  0  0  0  0  0  0  0  0  0  0  0
   22.8269   76.4401   22.1841 H   0  0  0  0  0  0  0  0  0  0  0  0
   20.3626   75.9119   19.4196 H   0  0  0  0  0  0  0  0  0  0  0  0
   22.7596   75.6283   19.0030 H   0  0  0  0  0  0  0  0  0  0  0  0
   23.0097   74.8028   20.5582 H   0  0  0  0  0  0  0  0  0  0  0  0
   22.8002   73.5603   17.9774 H   0  0  0  0  0  0  0  0  0  0  0  0
   22.8002   72.7036   19.5121 H   0  0  0  0  0  0  0  0  0  0  0  0
   20.4633   73.7245   17.8472 H   0  0  0  0  0  0  0  0  0  0  0  0
   20.6619   71.1666   19.3029 H   0  0  0  0  0  0  0  0  0  0  0  0
   20.9579   72.0851   16.4180 H   0  0  0  0  0  0  0  0  0  0  0  0
   22.0575   71.0399   17.4346 H   0  0  0  0  0  0  0  0  0  0  0  0
   20.9239   69.4973   15.8691 H   0  0  0  0  0  0  0  0  0  0  0  0
   19.2786   68.0156   15.5665 H   0  0  0  0  0  0  0  0  0  0  0  0
   18.7182   67.5031   17.2056 H   0  0  0  0  0  0  0  0  0  0  0  0
   15.3073   69.2529   16.4957 H   0  0  0  0  0  0  0  0  0  0  0  0
   16.1428   68.3956   17.8420 H   0  0  0  0  0  0  0  0  0  0  0  0
   16.8617   71.0992   16.6321 H   0  0  0  0  0  0  0  0  0  0  0  0
   16.2017   70.7268   18.3030 H   0  0  0  0  0  0  0  0  0  0  0  0
   18.2881   70.1382   20.2241 H   0  0  0  0  0  0  0  0  0  0  0  0
   17.3743   68.8403   19.3831 H   0  0  0  0  0  0  0  0  0  0  0  0
   19.1705   68.8188   19.3831 H   0  0  0  0  0  0  0  0  0  0  0  0
   18.5464   72.3462   17.4199 H   0  0  0  0  0  0  0  0  0  0  0  0
   17.0219   72.6175   19.2012 H   0  0  0  0  0  0  0  0  0  0  0  0
   18.2159   71.8830   20.3785 H   0  0  0  0  0  0  0  0  0  0  0  0
   18.4573   74.5607   18.9504 H   0  0  0  0  0  0  0  0  0  0  0  0
   18.1648   74.2560   20.7152 H   0  0  0  0  0  0  0  0  0  0  0  0
   20.2451   73.6378   22.2218 H   0  0  0  0  0  0  0  0  0  0  0  0
   19.8485   72.1192   21.3482 H   0  0  0  0  0  0  0  0  0  0  0  0
   21.5335   72.7415   21.3482 H   0  0  0  0  0  0  0  0  0  0  0  0
   16.8144   73.4903   24.2555 H   0  0  0  0  0  0  0  0  0  0  0  0
   17.7157   73.7891   26.5305 H   0  0  0  0  0  0  0  0  0  0  0  0
   18.1169   72.1356   25.9547 H   0  0  0  0  0  0  0  0  0  0  0  0
   19.3759   73.4168   25.9547 H   0  0  0  0  0  0  0  0  0  0  0  0
   19.1146   71.8762   23.9169 H   0  0  0  0  0  0  0  0  0  0  0  0
   17.7931   72.1965   22.7431 H   0  0  0  0  0  0  0  0  0  0  0  0
   19.2638   73.2277   22.7431 H   0  0  0  0  0  0  0  0  0  0  0  0
  1  2  1  0
  2  3  1  0
  3  4  1  0
  4  5  2  0
  5  6  1  0
  6  7  1  0
  6  8  1  0
  8  9  1  0
  9 10  1  0
 10 11  1  0
 11 12  1  0
 12 13  1  0
 13 14  1  0
 14 15  2  0
 15 16  1  0
 16 17  1  0
 17 18  2  0
 17 19  1  0
 19 20  1  0
 20 21  1  0
 21 22  1  1
 21 23  1  0
 23 24  1  0
 24 25  1  0
 25 26  1  0
 26 27  1  1
  3 28  1  0
 28 29  1  0
 28 30  1  0
 26  8  1  0
 26 11  1  0
 23 12  1  0
 21 15  1  0
  1 31  1  0
  1 32  1  0
  1 33  1  0
  2 34  1  0
  2 35  1  0
  3 36  1  1
  4 37  1  0
  5 38  1  0
  6 39  1  6
  7 40  1  0
  7 41  1  0
  7 42  1  0
  8 43  1  6
  9 44  1  0
  9 45  1  0
 10 46  1  0
 10 47  1  0
 11 48  1  6
 12 49  1  1
 13 50  1  0
 13 51  1  0
 14 52  1  0
 16 53  1  0
 16 54  1  0
 19 55  1  0
 19 56  1  0
 20 57  1  0
 20 58  1  0
 22 59  1  0
 22 60  1  0
 22 61  1  0
 23 62  1  6
 24 63  1  0
 24 64  1  0
 25 65  1  0
 25 66  1  0
 27 67  1  0
 27 68  1  0
 27 69  1  0
 28 70  1  0
 29 71  1  0
 29 72  1  0
 29 73  1  0
 30 74  1  0
 30 75  1  0
 30 76  1  0
M  END
>  <meeko>  (3) 
{"is_sidechain": [false], "free_energy": -3.262, "intermolecular_energy": -4.219, "internal_energy": 0.271}

$$$$
MOL008407_docked
     RDKit          3D

 76 79  0  0  0  0  0  0  0  0999 V2000
   16.3630   74.4770   21.0980 C   0  0  0  0  0  0  0  0  0  0  0  0
   16.0490   75.7430   21.8890 C   0  0  0  0  0  0  0  0  0  0  0  0
   17.3100   76.5590   22.2520 C   0  0  2  0  0  0  0  0  0  0  0  0
   18.5410   75.9450   21.6190 C   0  0  0  0  0  0  0  0  0  0  0  0
   19.7990   76.2990   21.9280 C   0  0  0  0  0  0  0  0  0  0  0  0
   21.0300   75.7000   21.2750 C   0  0  1  0  0  0  0  0  0  0  0  0
   22.2570   76.2200   22.0260 C   0  0  0  0  0  0  0  0  0  0  0  0
   20.9350   74.1530   21.2500 C   0  0  1  0  0  0  0  0  0  0  0  0
   20.2290   73.5910   22.5210 C   0  0  0  0  0  0  0  0  0  0  0  0
   19.5120   72.3000   22.1040 C   0  0  0  0  0  0  0  0  0  0  0  0
   20.0060   72.0460   20.6870 C   0  0  1  0  0  0  0  0  0  0  0  0
   19.2010   71.0840   19.8060 C   0  0  2  0  0  0  0  0  0  0  0  0
   19.0980   69.6980   20.4620 C   0  0  0  0  0  0  0  0  0  0  0  0
   18.6310   68.6300   19.5230 C   0  0  0  0  0  0  0  0  0  0  0  0
   18.5780   68.7520   18.1850 C   0  0  0  0  0  0  0  0  0  0  0  0
   18.0350   67.6140   17.3480 C   0  0  0  0  0  0  0  0  0  0  0  0
   18.9470   67.3250   16.1740 C   0  0  0  0  0  0  0  0  0  0  0  0
   19.1970   66.1740   15.8120 O   0  0  0  0  0  0  0  0  0  0  0  0
   19.3970   68.5150   15.3640 C   0  0  0  0  0  0  0  0  0  0  0  0
   19.9830   69.5830   16.2800 C   0  0  0  0  0  0  0  0  0  0  0  0
   19.0490   70.0160   17.4470 C   0  0  1  0  0  0  0  0  0  0  0  0
   17.8050   70.7410   16.8820 C   0  0  0  0  0  0  0  0  0  0  0  0
   19.8760   70.9580   18.4120 C   0  0  1  0  0  0  0  0  0  0  0  0
   20.2310   72.3370   17.7990 C   0  0  0  0  0  0  0  0  0  0  0  0
   20.9460   73.2890   18.7730 C   0  0  0  0  0  0  0  0  0  0  0  0
   20.1620   73.4620   20.0850 C   0  0  2  0  0  0  0  0  0  0  0  0
   18.8150   74.1740   19.8150 C   0  0  0  0  0  0  0  0  0  0  0  0
   17.4480   76.7380   23.7940 C   0  0  0  0  0  0  0  0  0  0  0  0
   17.9320   75.4490   24.4700 C   0  0  0  0  0  0  0  0  0  0  0  0
   16.1760   77.2360   24.4900 C   0  0  0  0  0  0  0  0  0  0  0  0
   16.5679   73.6507   21.7946 H   0  0  0  0  0  0  0  0  0  0  0  0
   15.5020   74.2175   20.4645 H   0  0  0  0  0  0  0  0  0  0  0  0
   17.2455   74.6499   20.4645 H   0  0  0  0  0  0  0  0  0  0  0  0
   15.3834   76.3772   21.2850 H   0  0  0  0  0  0  0  0  0  0  0  0
   15.5767   75.4318   22.8324 H   0  0  0  0  0  0  0  0  0  0  0  0
   17.2043   77.5717   21.8358 H   0  0  0  0  0  0  0  0  0  0  0  0
   18.3960   75.1618   20.8603 H   0  0  0  0  0  0  0  0  0  0  0  0
   19.9453   77.0687   22.7001 H   0  0  0  0  0  0  0  0  0  0  0  0
   21.1123   76.0061   20.2217 H   0  0  0  0  0  0  0  0  0  0  0  0
   22.0823   76.1460   23.1095 H   0  0  0  0  0  0  0  0  0  0  0  0
   23.1360   75.6170   21.7543 H   0  0  0  0  0  0  0  0  0  0  0  0
   22.4351   77.2709   21.7543 H   0  0  0  0  0  0  0  0  0  0  0  0
   22.0049   73.9186   21.1481 H   0  0  0  0  0  0  0  0  0  0  0  0
   20.9732   73.3743   23.3015 H   0  0  0  0  0  0  0  0  0  0  0  0
   19.5149   74.3219   22.9282 H   0  0  0  0  0  0  0  0  0  0  0  0
   19.7867   71.4679   22.7689 H   0  0  0  0  0  0  0  0  0  0  0  0
   18.4169   72.3863   22.1616 H   0  0  0  0  0  0  0  0  0  0  0  0
   20.9455   71.4753   20.7284 H   0  0  0  0  0  0  0  0  0  0  0  0
   18.1850   71.4885   19.6870 H   0  0  0  0  0  0  0  0  0  0  0  0
   20.0911   69.4177   20.8429 H   0  0  0  0  0  0  0  0  0  0  0  0
   18.3509   69.7735   21.2658 H   0  0  0  0  0  0  0  0  0  0  0  0
   18.3070   67.6740   19.9601 H   0  0  0  0  0  0  0  0  0  0  0  0
   17.9560   66.7125   17.9734 H   0  0  0  0  0  0  0  0  0  0  0  0
   17.0457   67.9015   16.9626 H   0  0  0  0  0  0  0  0  0  0  0  0
   20.1630   68.1948   14.6424 H   0  0  0  0  0  0  0  0  0  0  0  0
   18.5313   68.9347   14.8307 H   0  0  0  0  0  0  0  0  0  0  0  0
   20.9147   69.1904   16.7133 H   0  0  0  0  0  0  0  0  0  0  0  0
   20.1408   70.4763   15.6578 H   0  0  0  0  0  0  0  0  0  0  0  0
   17.1828   71.1036   17.7135 H   0  0  0  0  0  0  0  0  0  0  0  0
   18.1260   71.5935   16.2653 H   0  0  0  0  0  0  0  0  0  0  0  0
   17.2215   70.0415   16.2653 H   0  0  0  0  0  0  0  0  0  0  0  0
   20.8454   70.4586   18.5562 H   0  0  0  0  0  0  0  0  0  0  0  0
   20.8878   72.1715   16.9322 H   0  0  0  0  0  0  0  0  0  0  0  0
   19.2804   72.8175   17.5244 H   0  0  0  0  0  0  0  0  0  0  0  0
   21.9406   72.8800   19.0043 H   0  0  0  0  0  0  0  0  0  0  0  0
   21.0249   74.2744   18.2905 H   0  0  0  0  0  0  0  0  0  0  0  0
   18.3358   74.4273   20.7722 H   0  0  0  0  0  0  0  0  0  0  0  0
   18.9955   75.0945   19.2404 H   0  0  0  0  0  0  0  0  0  0  0  0
   18.1561   73.5064   19.2404 H   0  0  0  0  0  0  0  0  0  0  0  0
   18.2037   77.5284   23.9128 H   0  0  0  0  0  0  0  0  0  0  0  0
   17.8870   75.5688   25.5625 H   0  0  0  0  0  0  0  0  0  0  0  0
   17.2872   74.6112   24.1661 H   0  0  0  0  0  0  0  0  0  0  0  0
   18.9689   75.2426   24.1661 H   0  0  0  0  0  0  0  0  0  0  0  0
   16.3102   77.1835   25.5805 H   0  0  0  0  0  0  0  0  0  0  0  0
   15.9800   78.2773   24.1944 H   0  0  0  0  0  0  0  0  0  0  0  0
   15.3251   76.6046   24.1944 H   0  0  0  0  0  0  0  0  0  0  0  0
  1  2  1  0
  2  3  1  0
  3  4  1  0
  4  5  2  0
  5  6  1  0
  6  7  1  0
  6  8  1  0
  8  9  1  0
  9 10  1  0
 10 11  1  0
 11 12  1  0
 12 13  1  0
 13 14  1  0
 14 15  2  0
 15 16  1  0
 16 17  1  0
 17 18  2  0
 17 19  1  0
 19 20  1  0
 20 21  1  0
 21 22  1  6
 21 23  1  0
 23 24  1  0
 24 25  1  0
 25 26  1  0
 26 27  1  6
  3 28  1  0
 28 29  1  0
 28 30  1  0
 26  8  1  0
 26 11  1  0
 23 12  1  0
 21 15  1  0
  1 31  1  0
  1 32  1  0
  1 33  1  0
  2 34  1  0
  2 35  1  0
  3 36  1  6
  4 37  1  0
  5 38  1  0
  6 39  1  6
  7 40  1  0
  7 41  1  0
  7 42  1  0
  8 43  1  1
  9 44  1  0
  9 45  1  0
 10 46  1  0
 10 47  1  0
 11 48  1  1
 12 49  1  6
 13 50  1  0
 13 51  1  0
 14 52  1  0
 16 53  1  0
 16 54  1  0
 19 55  1  0
 19 56  1  0
 20 57  1  0
 20 58  1  0
 22 59  1  0
 22 60  1  0
 22 61  1  0
 23 62  1  1
 24 63  1  0
 24 64  1  0
 25 65  1  0
 25 66  1  0
 27 67  1  0
 27 68  1  0
 27 69  1  0
 28 70  1  0
 29 71  1  0
 29 72  1  0
 29 73  1  0
 30 74  1  0
 30 75  1  0
 30 76  1  0
M  END
>  <meeko>  (4) 
{"is_sidechain": [false], "free_energy": -2.248, "intermolecular_energy": -4.015, "internal_energy": 1.379}

$$$$
MOL008407_docked
     RDKit          3D

 76 79  0  0  0  0  0  0  0  0999 V2000
   20.4380   63.0120   19.1010 C   0  0  0  0  0  0  0  0  0  0  0  0
   19.4130   63.7900   18.2820 C   0  0  0  0  0  0  0  0  0  0  0  0
   19.7850   63.8950   16.7860 C   0  0  2  0  0  0  0  0  0  0  0  0
   19.3990   65.2520   16.2360 C   0  0  0  0  0  0  0  0  0  0  0  0
   19.4020   66.3840   16.9590 C   0  0  0  0  0  0  0  0  0  0  0  0
   18.9900   67.7370   16.4110 C   0  0  1  0  0  0  0  0  0  0  0  0
   17.4750   67.8660   16.5780 C   0  0  0  0  0  0  0  0  0  0  0  0
   19.7840   68.8720   17.1080 C   0  0  1  0  0  0  0  0  0  0  0  0
   20.5450   69.7650   16.0830 C   0  0  0  0  0  0  0  0  0  0  0  0
   20.6170   71.1770   16.6820 C   0  0  0  0  0  0  0  0  0  0  0  0
   20.1030   71.0000   18.1040 C   0  0  1  0  0  0  0  0  0  0  0  0
   19.6470   72.2490   18.8650 C   0  0  2  0  0  0  0  0  0  0  0  0
   20.7860   73.2760   18.9630 C   0  0  0  0  0  0  0  0  0  0  0  0
   20.5290   74.3540   19.9690 C   0  0  0  0  0  0  0  0  0  0  0  0
   19.5690   74.3140   20.9110 C   0  0  0  0  0  0  0  0  0  0  0  0
   19.3770   75.4950   21.8370 C   0  0  0  0  0  0  0  0  0  0  0  0
   19.2580   75.0380   23.2770 C   0  0  0  0  0  0  0  0  0  0  0  0
   19.7950   75.6510   24.2000 O   0  0  0  0  0  0  0  0  0  0  0  0
   18.3100   73.8940   23.5420 C   0  0  0  0  0  0  0  0  0  0  0  0
   18.6150   72.7300   22.6070 C   0  0  0  0  0  0  0  0  0  0  0  0
   18.6380   73.1050   21.0970 C   0  0  1  0  0  0  0  0  0  0  0  0
   17.2180   73.5080   20.6350 C   0  0  0  0  0  0  0  0  0  0  0  0
   19.1710   71.8520   20.2900 C   0  0  1  0  0  0  0  0  0  0  0  0
   18.1960   70.6470   20.2750 C   0  0  0  0  0  0  0  0  0  0  0  0
   18.6700   69.4690   19.4080 C   0  0  0  0  0  0  0  0  0  0  0  0
   19.0100   69.9130   17.9740 C   0  0  2  0  0  0  0  0  0  0  0  0
   17.7340   70.3990   17.2470 C   0  0  0  0  0  0  0  0  0  0  0  0
   19.1820   62.7150   15.9660 C   0  0  0  0  0  0  0  0  0  0  0  0
   17.8700   62.2140   16.5810 C   0  0  0  0  0  0  0  0  0  0  0  0
   20.1370   61.5340   15.7590 C   0  0  0  0  0  0  0  0  0  0  0  0
   20.2408   63.1616   20.1728 H   0  0  0  0  0  0  0  0  0  0  0  0
   20.3632   61.9412   18.8604 H   0  0  0  0  0  0  0  0  0  0  0  0
   21.4492   63.3721   18.8604 H   0  0  0  0  0  0  0  0  0  0  0  0
   18.4404   63.2831   18.3660 H   0  0  0  0  0  0  0  0  0  0  0  0
   19.3807   64.8133   18.6842 H   0  0  0  0  0  0  0  0  0  0  0  0
   20.8771   63.8072   16.6885 H   0  0  0  0  0  0  0  0  0  0  0  0
   19.0978   65.3145   15.1799 H   0  0  0  0  0  0  0  0  0  0  0  0
   19.7219   66.3265   18.0099 H   0  0  0  0  0  0  0  0  0  0  0  0
   19.2304   67.8251   15.3412 H   0  0  0  0  0  0  0  0  0  0  0  0
   17.2247   67.8873   17.6489 H   0  0  0  0  0  0  0  0  0  0  0  0
   17.1316   68.7966   16.1026 H   0  0  0  0  0  0  0  0  0  0  0  0
   16.9792   67.0068   16.1026 H   0  0  0  0  0  0  0  0  0  0  0  0
   20.4102   68.2593   17.7732 H   0  0  0  0  0  0  0  0  0  0  0  0
   21.5594   69.3720   15.9199 H   0  0  0  0  0  0  0  0  0  0  0  0
   20.0268   69.7768   15.1128 H   0  0  0  0  0  0  0  0  0  0  0  0
   21.6523   71.5487   16.6838 H   0  0  0  0  0  0  0  0  0  0  0  0
   20.0318   71.9108   16.1084 H   0  0  0  0  0  0  0  0  0  0  0  0
   20.9394   70.7128   18.7582 H   0  0  0  0  0  0  0  0  0  0  0  0
   18.8127   72.7074   18.3137 H   0  0  0  0  0  0  0  0  0  0  0  0
   21.7085   72.7478   19.2458 H   0  0  0  0  0  0  0  0  0  0  0  0
   20.8703   73.7624   17.9800 H   0  0  0  0  0  0  0  0  0  0  0  0
   21.1728   75.2453   19.9358 H   0  0  0  0  0  0  0  0  0  0  0  0
   20.2402   76.1703   21.7434 H   0  0  0  0  0  0  0  0  0  0  0  0
   18.4500   76.0159   21.5554 H   0  0  0  0  0  0  0  0  0  0  0  0
   18.4237   73.5620   24.5845 H   0  0  0  0  0  0  0  0  0  0  0  0
   17.2789   74.2345   23.3665 H   0  0  0  0  0  0  0  0  0  0  0  0
   19.6012   72.3231   22.8751 H   0  0  0  0  0  0  0  0  0  0  0  0
   17.8002   72.0025   22.7366 H   0  0  0  0  0  0  0  0  0  0  0  0
   16.5834   73.6881   21.5152 H   0  0  0  0  0  0  0  0  0  0  0  0
   17.2756   74.4253   20.0306 H   0  0  0  0  0  0  0  0  0  0  0  0
   16.7852   72.6972   20.0306 H   0  0  0  0  0  0  0  0  0  0  0  0
   20.0498   71.4925   20.8455 H   0  0  0  0  0  0  0  0  0  0  0  0
   18.0731   70.2888   21.3077 H   0  0  0  0  0  0  0  0  0  0  0  0
   17.2535   71.0060   19.8359 H   0  0  0  0  0  0  0  0  0  0  0  0
   19.5677   69.0286   19.8663 H   0  0  0  0  0  0  0  0  0  0  0  0
   17.8525   68.7351   19.3532 H   0  0  0  0  0  0  0  0  0  0  0  0
   16.9761   70.6877   17.9901 H   0  0  0  0  0  0  0  0  0  0  0  0
   17.9790   71.2668   16.6170 H   0  0  0  0  0  0  0  0  0  0  0  0
   17.3396   69.5881   16.6170 H   0  0  0  0  0  0  0  0  0  0  0  0
   18.9883   63.1420   14.9709 H   0  0  0  0  0  0  0  0  0  0  0  0
   17.9449   62.2426   17.6781 H   0  0  0  0  0  0  0  0  0  0  0  0
   17.0415   62.8590   16.2531 H   0  0  0  0  0  0  0  0  0  0  0  0
   17.6823   61.1809   16.2531 H   0  0  0  0  0  0  0  0  0  0  0  0
   20.4535   61.1426   16.7371 H   0  0  0  0  0  0  0  0  0  0  0  0
   19.6230   60.7412   15.1957 H   0  0  0  0  0  0  0  0  0  0  0  0
   21.0198   61.8707   15.1957 H   0  0  0  0  0  0  0  0  0  0  0  0
  1  2  1  0
  2  3  1  0
  3  4  1  0
  4  5  2  0
  5  6  1  0
  6  7  1  0
  6  8  1  0
  8  9  1  0
  9 10  1  0
 10 11  1  0
 11 12  1  0
 12 13  1  0
 13 14  1  0
 14 15  2  0
 15 16  1  0
 16 17  1  0
 17 18  2  0
 17 19  1  0
 19 20  1  0
 20 21  1  0
 21 22  1  6
 21 23  1  0
 23 24  1  0
 24 25  1  0
 25 26  1  0
 26 27  1  6
  3 28  1  0
 28 29  1  0
 28 30  1  0
 26  8  1  0
 26 11  1  0
 23 12  1  0
 21 15  1  0
  1 31  1  0
  1 32  1  0
  1 33  1  0
  2 34  1  0
  2 35  1  0
  3 36  1  1
  4 37  1  0
  5 38  1  0
  6 39  1  6
  7 40  1  0
  7 41  1  0
  7 42  1  0
  8 43  1  1
  9 44  1  0
  9 45  1  0
 10 46  1  0
 10 47  1  0
 11 48  1  1
 12 49  1  6
 13 50  1  0
 13 51  1  0
 14 52  1  0
 16 53  1  0
 16 54  1  0
 19 55  1  0
 19 56  1  0
 20 57  1  0
 20 58  1  0
 22 59  1  0
 22 60  1  0
 22 61  1  0
 23 62  1  1
 24 63  1  0
 24 64  1  0
 25 65  1  0
 25 66  1  0
 27 67  1  0
 27 68  1  0
 27 69  1  0
 28 70  1  0
 29 71  1  0
 29 72  1  0
 29 73  1  0
 30 74  1  0
 30 75  1  0
 30 76  1  0
M  END
>  <meeko>  (5) 
{"is_sidechain": [false], "free_energy": -2.003, "intermolecular_energy": -2.608, "internal_energy": 0.288}

$$$$
MOL008407_docked
     RDKit          3D

 76 79  0  0  0  0  0  0  0  0999 V2000
   17.7890   61.8220   16.1950 C   0  0  0  0  0  0  0  0  0  0  0  0
   18.8850   62.7840   15.7500 C   0  0  0  0  0  0  0  0  0  0  0  0
   19.1770   63.8930   16.7860 C   0  0  2  0  0  0  0  0  0  0  0  0
   19.3840   65.2250   16.0960 C   0  0  0  0  0  0  0  0  0  0  0  0
   19.0060   66.4050   16.6140 C   0  0  0  0  0  0  0  0  0  0  0  0
   19.1920   67.7350   15.9090 C   0  0  1  0  0  0  0  0  0  0  0  0
   17.8200   68.1970   15.4150 C   0  0  0  0  0  0  0  0  0  0  0  0
   19.8820   68.7580   16.8480 C   0  0  1  0  0  0  0  0  0  0  0  0
   20.6690   69.8420   16.0520 C   0  0  0  0  0  0  0  0  0  0  0  0
   20.6340   71.1290   16.8870 C   0  0  0  0  0  0  0  0  0  0  0  0
   20.0330   70.6900   18.2150 C   0  0  1  0  0  0  0  0  0  0  0  0
   19.4680   71.7710   19.1420 C   0  0  2  0  0  0  0  0  0  0  0  0
   20.5480   72.8040   19.5000 C   0  0  0  0  0  0  0  0  0  0  0  0
   20.1730   73.6810   20.6530 C   0  0  0  0  0  0  0  0  0  0  0  0
   19.1540   73.4440   21.4990 C   0  0  0  0  0  0  0  0  0  0  0  0
   18.8440   74.4380   22.5970 C   0  0  0  0  0  0  0  0  0  0  0  0
   18.6490   73.7340   23.9240 C   0  0  0  0  0  0  0  0  0  0  0  0
   19.0920   74.1950   24.9760 O   0  0  0  0  0  0  0  0  0  0  0  0
   17.7400   72.5290   23.9180 C   0  0  0  0  0  0  0  0  0  0  0  0
   18.1620   71.5570   22.8230 C   0  0  0  0  0  0  0  0  0  0  0  0
   18.2700   72.1890   21.4050 C   0  0  1  0  0  0  0  0  0  0  0  0
   16.8680   72.6180   20.9140 C   0  0  0  0  0  0  0  0  0  0  0  0
   18.9150   71.1160   20.4380 C   0  0  1  0  0  0  0  0  0  0  0  0
   18.0010   69.8990   20.1440 C   0  0  0  0  0  0  0  0  0  0  0  0
   18.5890   68.9070   19.1260 C   0  0  0  0  0  0  0  0  0  0  0  0
   19.0040   69.6050   17.8190 C   0  0  2  0  0  0  0  0  0  0  0  0
   17.7580   70.1660   17.0920 C   0  0  0  0  0  0  0  0  0  0  0  0
   20.3650   63.5030   17.7170 C   0  0  0  0  0  0  0  0  0  0  0  0
   21.0410   62.2070   17.2550 C   0  0  0  0  0  0  0  0  0  0  0  0
   19.9950   63.3890   19.2000 C   0  0  0  0  0  0  0  0  0  0  0  0
   17.7529   61.7903   17.2940 H   0  0  0  0  0  0  0  0  0  0  0  0
   16.8192   62.1658   15.8060 H   0  0  0  0  0  0  0  0  0  0  0  0
   18.0042   60.8158   15.8060 H   0  0  0  0  0  0  0  0  0  0  0  0
   19.8081   62.2096   15.5828 H   0  0  0  0  0  0  0  0  0  0  0  0
   18.5345   63.2777   14.8317 H   0  0  0  0  0  0  0  0  0  0  0  0
   18.2992   64.0020   17.4399 H   0  0  0  0  0  0  0  0  0  0  0  0
   19.8736   65.2261   15.1110 H   0  0  0  0  0  0  0  0  0  0  0  0
   18.5339   66.4071   17.6076 H   0  0  0  0  0  0  0  0  0  0  0  0
   19.8597   67.6363   15.0404 H   0  0  0  0  0  0  0  0  0  0  0  0
   17.1737   68.4146   16.2781 H   0  0  0  0  0  0  0  0  0  0  0  0
   17.9365   69.1055   14.8058 H   0  0  0  0  0  0  0  0  0  0  0  0
   17.3632   67.4031   14.8058 H   0  0  0  0  0  0  0  0  0  0  0  0
   20.4886   68.0596   17.4433 H   0  0  0  0  0  0  0  0  0  0  0  0
   21.7094   69.5183   15.9011 H   0  0  0  0  0  0  0  0  0  0  0  0
   20.2182   70.0052   15.0620 H   0  0  0  0  0  0  0  0  0  0  0  0
   21.6483   71.5298   17.0303 H   0  0  0  0  0  0  0  0  0  0  0  0
   20.0556   71.9309   16.4049 H   0  0  0  0  0  0  0  0  0  0  0  0
   20.8353   70.3228   18.8718 H   0  0  0  0  0  0  0  0  0  0  0  0
   18.6528   72.2892   18.6158 H   0  0  0  0  0  0  0  0  0  0  0  0
   21.4728   72.2667   19.7570 H   0  0  0  0  0  0  0  0  0  0  0  0
   20.6760   73.4567   18.6239 H   0  0  0  0  0  0  0  0  0  0  0  0
   20.7748   74.5862   20.8213 H   0  0  0  0  0  0  0  0  0  0  0  0
   19.6788   75.1488   22.6856 H   0  0  0  0  0  0  0  0  0  0  0  0
   17.9146   74.9672   22.3399 H   0  0  0  0  0  0  0  0  0  0  0  0
   17.7986   72.0247   24.8939 H   0  0  0  0  0  0  0  0  0  0  0  0
   16.7081   72.8588   23.7271 H   0  0  0  0  0  0  0  0  0  0  0  0
   19.1457   71.1439   23.0908 H   0  0  0  0  0  0  0  0  0  0  0  0
   17.3749   70.7908   22.7647 H   0  0  0  0  0  0  0  0  0  0  0  0
   16.2206   72.8161   21.7810 H   0  0  0  0  0  0  0  0  0  0  0  0
   16.9558   73.5304   20.3059 H   0  0  0  0  0  0  0  0  0  0  0  0
   16.4302   71.8127   20.3059 H   0  0  0  0  0  0  0  0  0  0  0  0
   19.7703   70.6963   20.9879 H   0  0  0  0  0  0  0  0  0  0  0  0
   17.8250   69.3624   21.0880 H   0  0  0  0  0  0  0  0  0  0  0  0
   17.0744   70.2957   19.7034 H   0  0  0  0  0  0  0  0  0  0  0  0
   19.4736   68.4256   19.5685 H   0  0  0  0  0  0  0  0  0  0  0  0
   17.8131   68.1655   18.8851 H   0  0  0  0  0  0  0  0  0  0  0  0
   17.0187   70.4989   17.8354 H   0  0  0  0  0  0  0  0  0  0  0  0
   18.0536   71.0179   16.4620 H   0  0  0  0  0  0  0  0  0  0  0  0
   17.3162   69.3799   16.4620 H   0  0  0  0  0  0  0  0  0  0  0  0
   21.0703   64.3426   17.6305 H   0  0  0  0  0  0  0  0  0  0  0  0
   21.3472   61.6199   18.1334 H   0  0  0  0  0  0  0  0  0  0  0  0
   20.3341   61.6202   16.6501 H   0  0  0  0  0  0  0  0  0  0  0  0
   21.9267   62.4509   16.6501 H   0  0  0  0  0  0  0  0  0  0  0  0
   20.8655   63.6572   19.8167 H   0  0  0  0  0  0  0  0  0  0  0  0
   19.1625   64.0723   19.4238 H   0  0  0  0  0  0  0  0  0  0  0  0
   19.6915   62.3557   19.4238 H   0  0  0  0  0  0  0  0  0  0  0  0
  1  2  1  0
  2  3  1  0
  3  4  1  0
  4  5  2  0
  5  6  1  0
  6  7  1  0
  6  8  1  0
  8  9  1  0
  9 10  1  0
 10 11  1  0
 11 12  1  0
 12 13  1  0
 13 14  1  0
 14 15  2  0
 15 16  1  0
 16 17  1  0
 17 18  2  0
 17 19  1  0
 19 20  1  0
 20 21  1  0
 21 22  1  6
 21 23  1  0
 23 24  1  0
 24 25  1  0
 25 26  1  0
 26 27  1  6
  3 28  1  0
 28 29  1  0
 28 30  1  0
 26  8  1  0
 26 11  1  0
 23 12  1  0
 21 15  1  0
  1 31  1  0
  1 32  1  0
  1 33  1  0
  2 34  1  0
  2 35  1  0
  3 36  1  1
  4 37  1  0
  5 38  1  0
  6 39  1  6
  7 40  1  0
  7 41  1  0
  7 42  1  0
  8 43  1  1
  9 44  1  0
  9 45  1  0
 10 46  1  0
 10 47  1  0
 11 48  1  1
 12 49  1  6
 13 50  1  0
 13 51  1  0
 14 52  1  0
 16 53  1  0
 16 54  1  0
 19 55  1  0
 19 56  1  0
 20 57  1  0
 20 58  1  0
 22 59  1  0
 22 60  1  0
 22 61  1  0
 23 62  1  1
 24 63  1  0
 24 64  1  0
 25 65  1  0
 25 66  1  0
 27 67  1  0
 27 68  1  0
 27 69  1  0
 28 70  1  0
 29 71  1  0
 29 72  1  0
 29 73  1  0
 30 74  1  0
 30 75  1  0
 30 76  1  0
M  END
>  <meeko>  (6) 
{"is_sidechain": [false], "free_energy": -1.799, "intermolecular_energy": -2.42, "internal_energy": 0.363}

$$$$
MOL008407_docked
     RDKit          3D

 76 79  0  0  0  0  0  0  0  0999 V2000
   18.6310   68.5410   20.4490 C   0  0  0  0  0  0  0  0  0  0  0  0
   17.7540   67.8290   19.4240 C   0  0  0  0  0  0  0  0  0  0  0  0
   18.0090   68.3010   17.9750 C   0  0  2  0  0  0  0  0  0  0  0  0
   19.0580   69.3930   17.9480 C   0  0  0  0  0  0  0  0  0  0  0  0
   20.1110   69.4020   17.1140 C   0  0  0  0  0  0  0  0  0  0  0  0
   21.1740   70.4840   17.1070 C   0  0  1  0  0  0  0  0  0  0  0  0
   20.9060   71.3930   15.9060 C   0  0  0  0  0  0  0  0  0  0  0  0
   21.1890   71.2420   18.4600 C   0  0  1  0  0  0  0  0  0  0  0  0
   22.5600   71.9350   18.7240 C   0  0  0  0  0  0  0  0  0  0  0  0
   22.2760   73.1920   19.5580 C   0  0  0  0  0  0  0  0  0  0  0  0
   20.8050   73.0610   19.9310 C   0  0  1  0  0  0  0  0  0  0  0  0
   20.0690   74.3180   20.4080 C   0  0  2  0  0  0  0  0  0  0  0  0
   20.7570   74.9180   21.6440 C   0  0  0  0  0  0  0  0  0  0  0  0
   19.9160   75.9280   22.3600 C   0  0  0  0  0  0  0  0  0  0  0  0
   18.5980   76.1100   22.1620 C   0  0  0  0  0  0  0  0  0  0  0  0
   17.8700   77.2040   22.9130 C   0  0  0  0  0  0  0  0  0  0  0  0
   16.5790   76.6820   23.5080 C   0  0  0  0  0  0  0  0  0  0  0  0
   16.2040   77.0090   24.6360 O   0  0  0  0  0  0  0  0  0  0  0  0
   15.6910   75.8790   22.5900 C   0  0  0  0  0  0  0  0  0  0  0  0
   16.4920   74.7660   21.9250 C   0  0  0  0  0  0  0  0  0  0  0  0
   17.7770   75.2470   21.1900 C   0  0  1  0  0  0  0  0  0  0  0  0
   17.3890   76.1190   19.9730 C   0  0  0  0  0  0  0  0  0  0  0  0
   18.5940   73.9670   20.7430 C   0  0  1  0  0  0  0  0  0  0  0  0
   17.9110   73.1400   19.6240 C   0  0  0  0  0  0  0  0  0  0  0  0
   18.7530   71.9540   19.1220 C   0  0  0  0  0  0  0  0  0  0  0  0
   20.1640   72.3930   18.6920 C   0  0  2  0  0  0  0  0  0  0  0  0
   20.0830   73.3220   17.4570 C   0  0  0  0  0  0  0  0  0  0  0  0
   16.6830   68.7200   17.2700 C   0  0  0  0  0  0  0  0  0  0  0  0
   16.8130   68.6590   15.7430 C   0  0  0  0  0  0  0  0  0  0  0  0
   16.1530   70.0960   17.6860 C   0  0  0  0  0  0  0  0  0  0  0  0
   18.3008   68.2729   21.4634 H   0  0  0  0  0  0  0  0  0  0  0  0
   19.6784   68.2345   20.3114 H   0  0  0  0  0  0  0  0  0  0  0  0
   18.5462   69.6291   20.3114 H   0  0  0  0  0  0  0  0  0  0  0  0
   17.9555   66.7491   19.4809 H   0  0  0  0  0  0  0  0  0  0  0  0
   16.7077   68.0664   19.6666 H   0  0  0  0  0  0  0  0  0  0  0  0
   18.4082   67.4548   17.3966 H   0  0  0  0  0  0  0  0  0  0  0  0
   18.9512   70.2296   18.6542 H   0  0  0  0  0  0  0  0  0  0  0  0
   20.2081   68.5762   16.3938 H   0  0  0  0  0  0  0  0  0  0  0  0
   22.1810   70.0544   17.0001 H   0  0  0  0  0  0  0  0  0  0  0  0
   20.6115   72.3918   16.2606 H   0  0  0  0  0  0  0  0  0  0  0  0
   21.8184   71.4744   15.2969 H   0  0  0  0  0  0  0  0  0  0  0  0
   20.0954   70.9664   15.2969 H   0  0  0  0  0  0  0  0  0  0  0  0
   20.9334   70.4058   19.1274 H   0  0  0  0  0  0  0  0  0  0  0  0
   23.2254   71.2566   19.2782 H   0  0  0  0  0  0  0  0  0  0  0  0
   23.0557   72.1964   17.7775 H   0  0  0  0  0  0  0  0  0  0  0  0
   22.9073   73.2149   20.4585 H   0  0  0  0  0  0  0  0  0  0  0  0
   22.4934   74.1214   19.0112 H   0  0  0  0  0  0  0  0  0  0  0  0
   20.7158   72.4664   20.8522 H   0  0  0  0  0  0  0  0  0  0  0  0
   20.0940   75.0647   19.6007 H   0  0  0  0  0  0  0  0  0  0  0  0
   20.9924   74.1018   22.3428 H   0  0  0  0  0  0  0  0  0  0  0  0
   21.6606   75.4378   21.2928 H   0  0  0  0  0  0  0  0  0  0  0  0
   20.4125   76.5691   23.1033 H   0  0  0  0  0  0  0  0  0  0  0  0
   18.5152   77.5764   23.7223 H   0  0  0  0  0  0  0  0  0  0  0  0
   17.6308   78.0150   22.2094 H   0  0  0  0  0  0  0  0  0  0  0  0
   14.8698   75.4371   23.1735 H   0  0  0  0  0  0  0  0  0  0  0  0
   15.2842   76.5426   21.8127 H   0  0  0  0  0  0  0  0  0  0  0  0
   16.7894   74.0456   22.7013 H   0  0  0  0  0  0  0  0  0  0  0  0
   15.8386   74.3255   21.1575 H   0  0  0  0  0  0  0  0  0  0  0  0
   16.9653   77.0713   20.3245 H   0  0  0  0  0  0  0  0  0  0  0  0
   18.2835   76.3181   19.3645 H   0  0  0  0  0  0  0  0  0  0  0  0
   16.6423   75.5878   19.3645 H   0  0  0  0  0  0  0  0  0  0  0  0
   18.6031   73.2988   21.6167 H   0  0  0  0  0  0  0  0  0  0  0  0
   16.9598   72.7487   20.0141 H   0  0  0  0  0  0  0  0  0  0  0  0
   17.7705   73.8164   18.7680 H   0  0  0  0  0  0  0  0  0  0  0  0
   18.8419   71.2136   19.9306 H   0  0  0  0  0  0  0  0  0  0  0  0
   18.2475   71.5243   18.2446 H   0  0  0  0  0  0  0  0  0  0  0  0
   19.9919   74.3666   17.7893 H   0  0  0  0  0  0  0  0  0  0  0  0
   20.9945   73.2079   16.8519 H   0  0  0  0  0  0  0  0  0  0  0  0
   19.2050   73.0518   16.8519 H   0  0  0  0  0  0  0  0  0  0  0  0
   15.9437   67.9803   17.6111 H   0  0  0  0  0  0  0  0  0  0  0  0
   17.7788   68.2058   15.4750 H   0  0  0  0  0  0  0  0  0  0  0  0
   15.9952   68.0507   15.3294 H   0  0  0  0  0  0  0  0  0  0  0  0
   16.7583   69.6768   15.3294 H   0  0  0  0  0  0  0  0  0  0  0  0
   16.1274   70.1625   18.7837 H   0  0  0  0  0  0  0  0  0  0  0  0
   16.8137   70.8795   17.2865 H   0  0  0  0  0  0  0  0  0  0  0  0
   15.1374   70.2339   17.2865 H   0  0  0  0  0  0  0  0  0  0  0  0
  1  2  1  0
  2  3  1  0
  3  4  1  0
  4  5  2  0
  5  6  1  0
  6  7  1  0
  6  8  1  0
  8  9  1  0
  9 10  1  0
 10 11  1  0
 11 12  1  0
 12 13  1  0
 13 14  1  0
 14 15  2  0
 15 16  1  0
 16 17  1  0
 17 18  2  0
 17 19  1  0
 19 20  1  0
 20 21  1  0
 21 22  1  6
 21 23  1  0
 23 24  1  0
 24 25  1  0
 25 26  1  0
 26 27  1  6
  3 28  1  0
 28 29  1  0
 28 30  1  0
 26  8  1  0
 26 11  1  0
 23 12  1  0
 21 15  1  0
  1 31  1  0
  1 32  1  0
  1 33  1  0
  2 34  1  0
  2 35  1  0
  3 36  1  6
  4 37  1  0
  5 38  1  0
  6 39  1  6
  7 40  1  0
  7 41  1  0
  7 42  1  0
  8 43  1  1
  9 44  1  0
  9 45  1  0
 10 46  1  0
 10 47  1  0
 11 48  1  1
 12 49  1  6
 13 50  1  0
 13 51  1  0
 14 52  1  0
 16 53  1  0
 16 54  1  0
 19 55  1  0
 19 56  1  0
 20 57  1  0
 20 58  1  0
 22 59  1  0
 22 60  1  0
 22 61  1  0
 23 62  1  1
 24 63  1  0
 24 64  1  0
 25 65  1  0
 25 66  1  0
 27 67  1  0
 27 68  1  0
 27 69  1  0
 28 70  1  0
 29 71  1  0
 29 72  1  0
 29 73  1  0
 30 74  1  0
 30 75  1  0
 30 76  1  0
M  END
>  <meeko>  (7) 
{"is_sidechain": [false], "free_energy": -1.605, "intermolecular_energy": -2.12, "internal_energy": 0.314}

$$$$
MOL008407_docked
     RDKit          3D

 76 79  0  0  0  0  0  0  0  0999 V2000
   18.9870   67.1610   15.4320 C   0  0  0  0  0  0  0  0  0  0  0  0
   17.6370   67.8650   15.3390 C   0  0  0  0  0  0  0  0  0  0  0  0
   17.5780   69.1750   16.1570 C   0  0  2  0  0  0  0  0  0  0  0  0
   18.9640   69.7650   16.3170 C   0  0  0  0  0  0  0  0  0  0  0  0
   19.7930   69.4710   17.3310 C   0  0  0  0  0  0  0  0  0  0  0  0
   21.1700   70.0830   17.5010 C   0  0  1  0  0  0  0  0  0  0  0  0
   21.5110   70.8320   16.2120 C   0  0  0  0  0  0  0  0  0  0  0  0
   21.2140   70.9830   18.7630 C   0  0  1  0  0  0  0  0  0  0  0  0
   22.5720   71.7370   18.8940 C   0  0  0  0  0  0  0  0  0  0  0  0
   22.2820   73.0680   19.6010 C   0  0  0  0  0  0  0  0  0  0  0  0
   20.8320   72.9390   20.0470 C   0  0  1  0  0  0  0  0  0  0  0  0
   20.0760   74.2210   20.4170 C   0  0  2  0  0  0  0  0  0  0  0  0
   20.7920   74.9680   21.5530 C   0  0  0  0  0  0  0  0  0  0  0  0
   19.9490   76.0270   22.1910 C   0  0  0  0  0  0  0  0  0  0  0  0
   18.6190   76.1510   22.0300 C   0  0  0  0  0  0  0  0  0  0  0  0
   17.8870   77.3000   22.6900 C   0  0  0  0  0  0  0  0  0  0  0  0
   16.6370   76.8110   23.3910 C   0  0  0  0  0  0  0  0  0  0  0  0
   16.2960   77.2480   24.4920 O   0  0  0  0  0  0  0  0  0  0  0  0
   15.7400   75.8900   22.6020 C   0  0  0  0  0  0  0  0  0  0  0  0
   16.5490   74.7340   22.0260 C   0  0  0  0  0  0  0  0  0  0  0  0
   17.7880   75.1670   21.1910 C   0  0  1  0  0  0  0  0  0  0  0  0
   17.3270   75.8920   19.9050 C   0  0  0  0  0  0  0  0  0  0  0  0
   18.6260   73.8680   20.8500 C   0  0  1  0  0  0  0  0  0  0  0  0
   17.9270   72.9070   19.8550 C   0  0  0  0  0  0  0  0  0  0  0  0
   18.7850   71.6970   19.4470 C   0  0  0  0  0  0  0  0  0  0  0  0
   20.1630   72.1250   18.9140 C   0  0  2  0  0  0  0  0  0  0  0  0
   20.0060   72.9120   17.5920 C   0  0  0  0  0  0  0  0  0  0  0  0
   16.8510   68.9630   17.5190 C   0  0  0  0  0  0  0  0  0  0  0  0
   15.9950   70.1780   17.8960 C   0  0  0  0  0  0  0  0  0  0  0  0
   17.7810   68.6090   18.6850 C   0  0  0  0  0  0  0  0  0  0  0  0
   19.2554   67.0210   16.4895 H   0  0  0  0  0  0  0  0  0  0  0  0
   18.9243   66.1808   14.9368 H   0  0  0  0  0  0  0  0  0  0  0  0
   19.7548   67.7735   14.9368 H   0  0  0  0  0  0  0  0  0  0  0  0
   17.4380   68.1022   14.2835 H   0  0  0  0  0  0  0  0  0  0  0  0
   16.8822   67.1830   15.7576 H   0  0  0  0  0  0  0  0  0  0  0  0
   16.9768   69.9091   15.6006 H   0  0  0  0  0  0  0  0  0  0  0  0
   19.3125   70.4782   15.5555 H   0  0  0  0  0  0  0  0  0  0  0  0
   19.4535   68.7433   18.0828 H   0  0  0  0  0  0  0  0  0  0  0  0
   21.9334   69.3082   17.6650 H   0  0  0  0  0  0  0  0  0  0  0  0
   21.9550   71.8071   16.4610 H   0  0  0  0  0  0  0  0  0  0  0  0
   22.2291   70.2417   15.6239 H   0  0  0  0  0  0  0  0  0  0  0  0
   20.5942   70.9860   15.6239 H   0  0  0  0  0  0  0  0  0  0  0  0
   21.0106   70.2170   19.5258 H   0  0  0  0  0  0  0  0  0  0  0  0
   23.2793   71.1401   19.4885 H   0  0  0  0  0  0  0  0  0  0  0  0
   23.0219   71.9086   17.9050 H   0  0  0  0  0  0  0  0  0  0  0  0
   22.9469   73.2040   20.4667 H   0  0  0  0  0  0  0  0  0  0  0  0
   22.4491   73.9388   18.9500 H   0  0  0  0  0  0  0  0  0  0  0  0
   20.7981   72.4447   21.0291 H   0  0  0  0  0  0  0  0  0  0  0  0
   20.0467   74.8767   19.5343 H   0  0  0  0  0  0  0  0  0  0  0  0
   21.0780   74.2380   22.3246 H   0  0  0  0  0  0  0  0  0  0  0  0
   21.6657   75.4700   21.1118 H   0  0  0  0  0  0  0  0  0  0  0  0
   20.4540   76.7581   22.8395 H   0  0  0  0  0  0  0  0  0  0  0  0
   18.5513   77.7746   23.4271 H   0  0  0  0  0  0  0  0  0  0  0  0
   17.5955   78.0236   21.9145 H   0  0  0  0  0  0  0  0  0  0  0  0
   14.9566   75.4913   23.2633 H   0  0  0  0  0  0  0  0  0  0  0  0
   15.2827   76.4548   21.7762 H   0  0  0  0  0  0  0  0  0  0  0  0
   16.8988   74.1096   22.8613 H   0  0  0  0  0  0  0  0  0  0  0  0
   15.8802   74.1963   21.3378 H   0  0  0  0  0  0  0  0  0  0  0  0
   16.7550   76.7916   20.1762 H   0  0  0  0  0  0  0  0  0  0  0  0
   18.2070   76.1820   19.3121 H   0  0  0  0  0  0  0  0  0  0  0  0
   16.6912   75.2181   19.3121 H   0  0  0  0  0  0  0  0  0  0  0  0
   18.6889   73.2985   21.7890 H   0  0  0  0  0  0  0  0  0  0  0  0
   17.0043   72.5345   20.3240 H   0  0  0  0  0  0  0  0  0  0  0  0
   17.7331   73.4834   18.9384 H   0  0  0  0  0  0  0  0  0  0  0  0
   18.9285   71.0504   20.3252 H   0  0  0  0  0  0  0  0  0  0  0  0
   18.2593   71.1619   18.6424 H   0  0  0  0  0  0  0  0  0  0  0  0
   19.7953   73.9680   17.8167 H   0  0  0  0  0  0  0  0  0  0  0  0
   20.9363   72.8396   17.0095 H   0  0  0  0  0  0  0  0  0  0  0  0
   19.1747   72.4882   17.0095 H   0  0  0  0  0  0  0  0  0  0  0  0
   16.2052   68.0882   17.3528 H   0  0  0  0  0  0  0  0  0  0  0  0
   15.9372   70.2601   18.9914 H   0  0  0  0  0  0  0  0  0  0  0  0
   16.4511   71.0901   17.4835 H   0  0  0  0  0  0  0  0  0  0  0  0
   14.9826   70.0555   17.4835 H   0  0  0  0  0  0  0  0  0  0  0  0
   17.2662   68.8050   19.6371 H   0  0  0  0  0  0  0  0  0  0  0  0
   18.0526   67.5446   18.6273 H   0  0  0  0  0  0  0  0  0  0  0  0
   18.6916   69.2234   18.6273 H   0  0  0  0  0  0  0  0  0  0  0  0
  1  2  1  0
  2  3  1  0
  3  4  1  0
  4  5  2  0
  5  6  1  0
  6  7  1  0
  6  8  1  0
  8  9  1  0
  9 10  1  0
 10 11  1  0
 11 12  1  0
 12 13  1  0
 13 14  1  0
 14 15  2  0
 15 16  1  0
 16 17  1  0
 17 18  2  0
 17 19  1  0
 19 20  1  0
 20 21  1  0
 21 22  1  6
 21 23  1  0
 23 24  1  0
 24 25  1  0
 25 26  1  0
 26 27  1  6
  3 28  1  0
 28 29  1  0
 28 30  1  0
 26  8  1  0
 26 11  1  0
 23 12  1  0
 21 15  1  0
  1 31  1  0
  1 32  1  0
  1 33  1  0
  2 34  1  0
  2 35  1  0
  3 36  1  6
  4 37  1  0
  5 38  1  0
  6 39  1  1
  7 40  1  0
  7 41  1  0
  7 42  1  0
  8 43  1  1
  9 44  1  0
  9 45  1  0
 10 46  1  0
 10 47  1  0
 11 48  1  1
 12 49  1  6
 13 50  1  0
 13 51  1  0
 14 52  1  0
 16 53  1  0
 16 54  1  0
 19 55  1  0
 19 56  1  0
 20 57  1  0
 20 58  1  0
 22 59  1  0
 22 60  1  0
 22 61  1  0
 23 62  1  1
 24 63  1  0
 24 64  1  0
 25 65  1  0
 25 66  1  0
 27 67  1  0
 27 68  1  0
 27 69  1  0
 28 70  1  0
 29 71  1  0
 29 72  1  0
 29 73  1  0
 30 74  1  0
 30 75  1  0
 30 76  1  0
M  END
>  <meeko>  (8) 
{"is_sidechain": [false], "free_energy": -1.182, "intermolecular_energy": -2.183, "internal_energy": 0.924}

$$$$
MOL008407_docked
     RDKit          3D

 76 79  0  0  0  0  0  0  0  0999 V2000
   17.8110   62.0300   15.9630 C   0  0  0  0  0  0  0  0  0  0  0  0
   18.9530   63.0050   15.6940 C   0  0  0  0  0  0  0  0  0  0  0  0
   19.0750   64.1080   16.7690 C   0  0  2  0  0  0  0  0  0  0  0  0
   19.3930   65.4430   16.1280 C   0  0  0  0  0  0  0  0  0  0  0  0
   18.9930   66.6260   16.6220 C   0  0  0  0  0  0  0  0  0  0  0  0
   19.2920   67.9600   15.9640 C   0  0  1  0  0  0  0  0  0  0  0  0
   19.0050   67.8170   14.4680 C   0  0  0  0  0  0  0  0  0  0  0  0
   18.4800   69.0950   16.6390 C   0  0  1  0  0  0  0  0  0  0  0  0
   17.0980   68.5940   17.1570 C   0  0  0  0  0  0  0  0  0  0  0  0
   16.7460   69.4390   18.3900 C   0  0  0  0  0  0  0  0  0  0  0  0
   17.8100   70.5270   18.4060 C   0  0  1  0  0  0  0  0  0  0  0  0
   18.0260   71.3040   19.7100 C   0  0  2  0  0  0  0  0  0  0  0  0
   16.7260   71.9900   20.1590 C   0  0  0  0  0  0  0  0  0  0  0  0
   16.9370   73.0280   21.2160 C   0  0  0  0  0  0  0  0  0  0  0  0
   18.1310   73.5470   21.5570 C   0  0  0  0  0  0  0  0  0  0  0  0
   18.2180   74.5540   22.6830 C   0  0  0  0  0  0  0  0  0  0  0  0
   19.0630   75.7440   22.2780 C   0  0  0  0  0  0  0  0  0  0  0  0
   18.7520   76.8970   22.5820 O   0  0  0  0  0  0  0  0  0  0  0  0
   20.3920   75.4360   21.6320 C   0  0  0  0  0  0  0  0  0  0  0  0
   20.2010   74.4630   20.4750 C   0  0  0  0  0  0  0  0  0  0  0  0
   19.4380   73.1590   20.8470 C   0  0  1  0  0  0  0  0  0  0  0  0
   20.2900   72.3140   21.8240 C   0  0  0  0  0  0  0  0  0  0  0  0
   19.1420   72.3670   19.5100 C   0  0  1  0  0  0  0  0  0  0  0  0
   20.4050   71.7800   18.8280 C   0  0  0  0  0  0  0  0  0  0  0  0
   20.1040   70.9260   17.5850 C   0  0  0  0  0  0  0  0  0  0  0  0
   19.0810   69.8160   17.8840 C   0  0  2  0  0  0  0  0  0  0  0  0
   19.6760   68.7950   18.8830 C   0  0  0  0  0  0  0  0  0  0  0  0
   20.0950   63.7120   17.8780 C   0  0  0  0  0  0  0  0  0  0  0  0
   20.8670   62.4400   17.5060 C   0  0  0  0  0  0  0  0  0  0  0  0
   19.4820   63.5500   19.2740 C   0  0  0  0  0  0  0  0  0  0  0  0
   17.6756   61.9144   17.0485 H   0  0  0  0  0  0  0  0  0  0  0  0
   16.8838   62.4193   15.5172 H   0  0  0  0  0  0  0  0  0  0  0  0
   18.0501   61.0532   15.5172 H   0  0  0  0  0  0  0  0  0  0  0  0
   19.8961   62.4396   15.6641 H   0  0  0  0  0  0  0  0  0  0  0  0
   18.7402   63.5028   14.7364 H   0  0  0  0  0  0  0  0  0  0  0  0
   18.1030   64.2153   17.2727 H   0  0  0  0  0  0  0  0  0  0  0  0
   19.9872   65.4436   15.2023 H   0  0  0  0  0  0  0  0  0  0  0  0
   18.4151   66.6279   17.5580 H   0  0  0  0  0  0  0  0  0  0  0  0
   20.3483   68.2397   16.0904 H   0  0  0  0  0  0  0  0  0  0  0  0
   18.0286   67.3305   14.3268 H   0  0  0  0  0  0  0  0  0  0  0  0
   18.9895   68.8127   14.0008 H   0  0  0  0  0  0  0  0  0  0  0  0
   19.7906   67.2050   14.0008 H   0  0  0  0  0  0  0  0  0  0  0  0
   18.4528   69.8072   15.8012 H   0  0  0  0  0  0  0  0  0  0  0  0
   16.3325   68.7256   16.3781 H   0  0  0  0  0  0  0  0  0  0  0  0
   17.1394   67.5250   17.4132 H   0  0  0  0  0  0  0  0  0  0  0  0
   15.7414   69.8759   18.2909 H   0  0  0  0  0  0  0  0  0  0  0  0
   16.7302   68.8483   19.3178 H   0  0  0  0  0  0  0  0  0  0  0  0
   17.4795   71.3653   17.7751 H   0  0  0  0  0  0  0  0  0  0  0  0
   18.3319   70.5939   20.4924 H   0  0  0  0  0  0  0  0  0  0  0  0
   16.2656   72.4719   19.2839 H   0  0  0  0  0  0  0  0  0  0  0  0
   16.0806   71.2116   20.5921 H   0  0  0  0  0  0  0  0  0  0  0  0
   16.0503   73.3940   21.7543 H   0  0  0  0  0  0  0  0  0  0  0  0
   17.2050   74.9006   22.9356 H   0  0  0  0  0  0  0  0  0  0  0  0
   18.6858   74.0698   23.5529 H   0  0  0  0  0  0  0  0  0  0  0  0
   20.8368   76.3681   21.2534 H   0  0  0  0  0  0  0  0  0  0  0  0
   21.0574   74.9792   22.3794 H   0  0  0  0  0  0  0  0  0  0  0  0
   19.6364   74.9773   19.6833 H   0  0  0  0  0  0  0  0  0  0  0  0
   21.2077   74.1558   20.1555 H   0  0  0  0  0  0  0  0  0  0  0  0
   20.0270   72.5749   22.8597 H   0  0  0  0  0  0  0  0  0  0  0  0
   20.0919   71.2455   21.6534 H   0  0  0  0  0  0  0  0  0  0  0  0
   21.3568   72.5209   21.6534 H   0  0  0  0  0  0  0  0  0  0  0  0
   18.7642   73.1158   18.7982 H   0  0  0  0  0  0  0  0  0  0  0  0
   21.0544   72.6147   18.5254 H   0  0  0  0  0  0  0  0  0  0  0  0
   20.8841   71.1158   19.5624 H   0  0  0  0  0  0  0  0  0  0  0  0
   19.7011   71.5773   16.7954 H   0  0  0  0  0  0  0  0  0  0  0  0
   21.0416   70.4477   17.2654 H   0  0  0  0  0  0  0  0  0  0  0  0
   19.4799   69.1315   19.9117 H   0  0  0  0  0  0  0  0  0  0  0  0
   19.2096   67.8116   18.7237 H   0  0  0  0  0  0  0  0  0  0  0  0
   20.7615   68.7160   18.7237 H   0  0  0  0  0  0  0  0  0  0  0  0
   20.7863   64.5659   17.9331 H   0  0  0  0  0  0  0  0  0  0  0  0
   21.1821   61.9209   18.4232 H   0  0  0  0  0  0  0  0  0  0  0  0
   20.2185   61.7774   16.9140 H   0  0  0  0  0  0  0  0  0  0  0  0
   21.7541   62.7094   16.9140 H   0  0  0  0  0  0  0  0  0  0  0  0
   20.2483   63.7525   20.0367 H   0  0  0  0  0  0  0  0  0  0  0  0
   18.6495   64.2590   19.3934 H   0  0  0  0  0  0  0  0  0  0  0  0
   19.1084   62.5223   19.3934 H   0  0  0  0  0  0  0  0  0  0  0  0
  1  2  1  0
  2  3  1  0
  3  4  1  0
  4  5  2  0
  5  6  1  0
  6  7  1  0
  6  8  1  0
  8  9  1  0
  9 10  1  0
 10 11  1  0
 11 12  1  0
 12 13  1  0
 13 14  1  0
 14 15  2  0
 15 16  1  0
 16 17  1  0
 17 18  2  0
 17 19  1  0
 19 20  1  0
 20 21  1  0
 21 22  1  1
 21 23  1  0
 23 24  1  0
 24 25  1  0
 25 26  1  0
 26 27  1  1
  3 28  1  0
 28 29  1  0
 28 30  1  0
 26  8  1  0
 26 11  1  0
 23 12  1  0
 21 15  1  0
  1 31  1  0
  1 32  1  0
  1 33  1  0
  2 34  1  0
  2 35  1  0
  3 36  1  1
  4 37  1  0
  5 38  1  0
  6 39  1  6
  7 40  1  0
  7 41  1  0
  7 42  1  0
  8 43  1  6
  9 44  1  0
  9 45  1  0
 10 46  1  0
 10 47  1  0
 11 48  1  6
 12 49  1  1
 13 50  1  0
 13 51  1  0
 14 52  1  0
 16 53  1  0
 16 54  1  0
 19 55  1  0
 19 56  1  0
 20 57  1  0
 20 58  1  0
 22 59  1  0
 22 60  1  0
 22 61  1  0
 23 62  1  6
 24 63  1  0
 24 64  1  0
 25 65  1  0
 25 66  1  0
 27 67  1  0
 27 68  1  0
 27 69  1  0
 28 70  1  0
 29 71  1  0
 29 72  1  0
 29 73  1  0
 30 74  1  0
 30 75  1  0
 30 76  1  0
M  END
>  <meeko>  (9) 
{"is_sidechain": [false], "free_energy": -1.054, "intermolecular_energy": -0.472, "internal_energy": -0.623}

$$$$
MOL008407_docked
     RDKit          3D

 76 79  0  0  0  0  0  0  0  0999 V2000
   16.8820   69.3180   18.2720 C   0  0  0  0  0  0  0  0  0  0  0  0
   17.8970   68.2280   18.6020 C   0  0  0  0  0  0  0  0  0  0  0  0
   19.0310   68.1180   17.5590 C   0  0  2  0  0  0  0  0  0  0  0  0
   19.7610   69.4380   17.4260 C   0  0  0  0  0  0  0  0  0  0  0  0
   20.9420   69.7040   18.0080 C   0  0  0  0  0  0  0  0  0  0  0  0
   21.6590   71.0360   17.8940 C   0  0  1  0  0  0  0  0  0  0  0  0
   22.3970   71.0550   16.5550 C   0  0  0  0  0  0  0  0  0  0  0  0
   20.6590   72.2090   18.0600 C   0  0  1  0  0  0  0  0  0  0  0  0
   19.3600   71.9910   17.2260 C   0  0  0  0  0  0  0  0  0  0  0  0
   18.2170   72.6790   17.9840 C   0  0  0  0  0  0  0  0  0  0  0  0
   18.9210   73.4480   19.0930 C   0  0  1  0  0  0  0  0  0  0  0  0
   18.0830   73.9170   20.2880 C   0  0  2  0  0  0  0  0  0  0  0  0
   16.9310   74.8230   19.8250 C   0  0  0  0  0  0  0  0  0  0  0  0
   16.2880   75.5830   20.9430 C   0  0  0  0  0  0  0  0  0  0  0  0
   16.8070   75.7220   22.1760 C   0  0  0  0  0  0  0  0  0  0  0  0
   16.0310   76.4730   23.2370 C   0  0  0  0  0  0  0  0  0  0  0  0
   16.9220   77.4640   23.9570 C   0  0  0  0  0  0  0  0  0  0  0  0
   16.5280   78.5900   24.2630 O   0  0  0  0  0  0  0  0  0  0  0  0
   18.2570   76.9450   24.4320 C   0  0  0  0  0  0  0  0  0  0  0  0
   18.9920   76.2580   23.2870 C   0  0  0  0  0  0  0  0  0  0  0  0
   18.1740   75.1430   22.5720 C   0  0  1  0  0  0  0  0  0  0  0  0
   17.9400   73.9610   23.5430 C   0  0  0  0  0  0  0  0  0  0  0  0
   18.9860   74.6850   21.2930 C   0  0  1  0  0  0  0  0  0  0  0  0
   20.2970   73.9220   21.6150 C   0  0  0  0  0  0  0  0  0  0  0  0
   21.0310   73.3910   20.3730 C   0  0  0  0  0  0  0  0  0  0  0  0
   20.1100   72.5390   19.4820 C   0  0  2  0  0  0  0  0  0  0  0  0
   19.6890   71.2490   20.2260 C   0  0  0  0  0  0  0  0  0  0  0  0
   18.4990   67.5820   16.1950 C   0  0  0  0  0  0  0  0  0  0  0  0
   19.3950   66.4670   15.6410 C   0  0  0  0  0  0  0  0  0  0  0  0
   18.3000   68.6600   15.1250 C   0  0  0  0  0  0  0  0  0  0  0  0
   16.4852   69.7442   19.2052 H   0  0  0  0  0  0  0  0  0  0  0  0
   17.3718   70.1100   17.6864 H   0  0  0  0  0  0  0  0  0  0  0  0
   16.0572   68.8858   17.6864 H   0  0  0  0  0  0  0  0  0  0  0  0
   18.3437   68.4511   19.5821 H   0  0  0  0  0  0  0  0  0  0  0  0
   17.3586   67.2687   18.6026 H   0  0  0  0  0  0  0  0  0  0  0  0
   19.7636   67.3782   17.9139 H   0  0  0  0  0  0  0  0  0  0  0  0
   19.2961   70.2266   16.8160 H   0  0  0  0  0  0  0  0  0  0  0  0
   21.4171   68.9094   18.6021 H   0  0  0  0  0  0  0  0  0  0  0  0
   22.3969   71.1627   18.6999 H   0  0  0  0  0  0  0  0  0  0  0  0
   23.4819   71.0829   16.7346 H   0  0  0  0  0  0  0  0  0  0  0  0
   22.1431   70.1500   15.9835 H   0  0  0  0  0  0  0  0  0  0  0  0
   22.0969   71.9457   15.9835 H   0  0  0  0  0  0  0  0  0  0  0  0
   21.3098   73.0341   17.7350 H   0  0  0  0  0  0  0  0  0  0  0  0
   19.4733   72.4379   16.2273 H   0  0  0  0  0  0  0  0  0  0  0  0
   19.1537   70.9184   17.0955 H   0  0  0  0  0  0  0  0  0  0  0  0
   17.6656   73.3636   17.3227 H   0  0  0  0  0  0  0  0  0  0  0  0
   17.4744   71.9649   18.3695 H   0  0  0  0  0  0  0  0  0  0  0  0
   19.2224   74.4355   18.7135 H   0  0  0  0  0  0  0  0  0  0  0  0
   17.6531   73.0329   20.7815 H   0  0  0  0  0  0  0  0  0  0  0  0
   17.3263   75.5444   19.0947 H   0  0  0  0  0  0  0  0  0  0  0  0
   16.1597   74.1712   19.3888 H   0  0  0  0  0  0  0  0  0  0  0  0
   15.3192   76.0634   20.7411 H   0  0  0  0  0  0  0  0  0  0  0  0
   15.2008   77.0149   22.7604 H   0  0  0  0  0  0  0  0  0  0  0  0
   15.6459   75.7488   23.9700 H   0  0  0  0  0  0  0  0  0  0  0  0
   18.8633   77.7855   24.8007 H   0  0  0  0  0  0  0  0  0  0  0  0
   18.0924   76.2177   25.2407 H   0  0  0  0  0  0  0  0  0  0  0  0
   19.2567   77.0219   22.5411 H   0  0  0  0  0  0  0  0  0  0  0  0
   19.8710   75.7664   23.7295 H   0  0  0  0  0  0  0  0  0  0  0  0
   18.0109   74.3193   24.5806 H   0  0  0  0  0  0  0  0  0  0  0  0
   16.9403   73.5362   23.3693 H   0  0  0  0  0  0  0  0  0  0  0  0
   18.7024   73.1873   23.3693 H   0  0  0  0  0  0  0  0  0  0  0  0
   19.3168   75.6121   20.8020 H   0  0  0  0  0  0  0  0  0  0  0  0
   20.9725   74.6052   22.1506 H   0  0  0  0  0  0  0  0  0  0  0  0
   20.0162   73.0460   22.2182 H   0  0  0  0  0  0  0  0  0  0  0  0
   21.4019   74.2449   19.7871 H   0  0  0  0  0  0  0  0  0  0  0  0
   21.8601   72.7535   20.7139 H   0  0  0  0  0  0  0  0  0  0  0  0
   19.7439   71.4173   21.3117 H   0  0  0  0  0  0  0  0  0  0  0  0
   18.6581   70.9850   19.9476 H   0  0  0  0  0  0  0  0  0  0  0  0
   20.3657   70.4277   19.9476 H   0  0  0  0  0  0  0  0  0  0  0  0
   17.5017   67.1800   16.4267 H   0  0  0  0  0  0  0  0  0  0  0  0
   19.8438   65.9085   16.4757 H   0  0  0  0  0  0  0  0  0  0  0  0
   18.7918   65.7839   15.0250 H   0  0  0  0  0  0  0  0  0  0  0  0
   20.1920   66.9091   15.0250 H   0  0  0  0  0  0  0  0  0  0  0  0
   18.1209   69.6304   15.6110 H   0  0  0  0  0  0  0  0  0  0  0  0
   19.2013   68.7249   14.4978 H   0  0  0  0  0  0  0  0  0  0  0  0
   17.4349   68.3988   14.4978 H   0  0  0  0  0  0  0  0  0  0  0  0
  1  2  1  0
  2  3  1  0
  3  4  1  0
  4  5  2  0
  5  6  1  0
  6  7  1  0
  6  8  1  0
  8  9  1  0
  9 10  1  0
 10 11  1  0
 11 12  1  0
 12 13  1  0
 13 14  1  0
 14 15  2  0
 15 16  1  0
 16 17  1  0
 17 18  2  0
 17 19  1  0
 19 20  1  0
 20 21  1  0
 21 22  1  1
 21 23  1  0
 23 24  1  0
 24 25  1  0
 25 26  1  0
 26 27  1  1
  3 28  1  0
 28 29  1  0
 28 30  1  0
 26  8  1  0
 26 11  1  0
 23 12  1  0
 21 15  1  0
  1 31  1  0
  1 32  1  0
  1 33  1  0
  2 34  1  0
  2 35  1  0
  3 36  1  1
  4 37  1  0
  5 38  1  0
  6 39  1  1
  7 40  1  0
  7 41  1  0
  7 42  1  0
  8 43  1  6
  9 44  1  0
  9 45  1  0
 10 46  1  0
 10 47  1  0
 11 48  1  6
 12 49  1  1
 13 50  1  0
 13 51  1  0
 14 52  1  0
 16 53  1  0
 16 54  1  0
 19 55  1  0
 19 56  1  0
 20 57  1  0
 20 58  1  0
 22 59  1  0
 22 60  1  0
 22 61  1  0
 23 62  1  6
 24 63  1  0
 24 64  1  0
 25 65  1  0
 25 66  1  0
 27 67  1  0
 27 68  1  0
 27 69  1  0
 28 70  1  0
 29 71  1  0
 29 72  1  0
 29 73  1  0
 30 74  1  0
 30 75  1  0
 30 76  1  0
M  END
>  <meeko>  (10) 
{"is_sidechain": [false], "free_energy": 0.071, "intermolecular_energy": 0.275, "internal_energy": 0.084}

$$$$
MOL008407_docked
     RDKit          3D

 76 79  0  0  0  0  0  0  0  0999 V2000
   19.2680   66.6400   16.3580 C   0  0  0  0  0  0  0  0  0  0  0  0
   18.9050   67.4430   15.1130 C   0  0  0  0  0  0  0  0  0  0  0  0
   18.3790   68.8590   15.4350 C   0  0  2  0  0  0  0  0  0  0  0  0
   19.1510   69.4630   16.5890 C   0  0  0  0  0  0  0  0  0  0  0  0
   20.4580   69.7690   16.5390 C   0  0  0  0  0  0  0  0  0  0  0  0
   21.2350   70.3510   17.7040 C   0  0  1  0  0  0  0  0  0  0  0  0
   21.8980   71.6430   17.2240 C   0  0  0  0  0  0  0  0  0  0  0  0
   20.3080   70.5550   18.9300 C   0  0  1  0  0  0  0  0  0  0  0  0
   20.6250   69.5460   20.0750 C   0  0  0  0  0  0  0  0  0  0  0  0
   20.2890   70.2480   21.3990 C   0  0  0  0  0  0  0  0  0  0  0  0
   19.5900   71.5300   20.9690 C   0  0  1  0  0  0  0  0  0  0  0  0
   19.4800   72.6670   21.9900 C   0  0  2  0  0  0  0  0  0  0  0  0
   18.7410   72.1970   23.2530 C   0  0  0  0  0  0  0  0  0  0  0  0
   18.3000   73.3220   24.1360 C   0  0  0  0  0  0  0  0  0  0  0  0
   18.2660   74.6170   23.7720 C   0  0  0  0  0  0  0  0  0  0  0  0
   17.8490   75.6690   24.7780 C   0  0  0  0  0  0  0  0  0  0  0  0
   16.8390   76.6220   24.1730 C   0  0  0  0  0  0  0  0  0  0  0  0
   15.8670   77.0310   24.8120 O   0  0  0  0  0  0  0  0  0  0  0  0
   17.1720   77.1790   22.8120 C   0  0  0  0  0  0  0  0  0  0  0  0
   17.5200   76.0490   21.8510 C   0  0  0  0  0  0  0  0  0  0  0  0
   18.6390   75.0930   22.3590 C   0  0  1  0  0  0  0  0  0  0  0  0
   19.9820   75.8550   22.4400 C   0  0  0  0  0  0  0  0  0  0  0  0
   18.7300   73.8710   21.3570 C   0  0  1  0  0  0  0  0  0  0  0  0
   19.2790   74.2410   19.9550 C   0  0  0  0  0  0  0  0  0  0  0  0
   19.4610   73.0360   19.0170 C   0  0  0  0  0  0  0  0  0  0  0  0
   20.3160   71.9310   19.6630 C   0  0  2  0  0  0  0  0  0  0  0  0
   21.7620   72.4330   19.8840 C   0  0  0  0  0  0  0  0  0  0  0  0
   16.8390   68.8530   15.6770 C   0  0  0  0  0  0  0  0  0  0  0  0
   16.5000   69.0420   17.1600 C   0  0  0  0  0  0  0  0  0  0  0  0
   16.1190   67.6110   15.1400 C   0  0  0  0  0  0  0  0  0  0  0  0
   19.0066   67.2183   17.2564 H   0  0  0  0  0  0  0  0  0  0  0  0
   18.7112   65.6913   16.3577 H   0  0  0  0  0  0  0  0  0  0  0  0
   20.3480   66.4313   16.3577 H   0  0  0  0  0  0  0  0  0  0  0  0
   19.8025   67.5379   14.4841 H   0  0  0  0  0  0  0  0  0  0  0  0
   18.0962   66.9025   14.5994 H   0  0  0  0  0  0  0  0  0  0  0  0
   18.5487   69.5032   14.5597 H   0  0  0  0  0  0  0  0  0  0  0  0
   18.6088   69.6633   17.5249 H   0  0  0  0  0  0  0  0  0  0  0  0
   20.9965   69.5866   15.5973 H   0  0  0  0  0  0  0  0  0  0  0  0
   22.0223   69.6616   18.0430 H   0  0  0  0  0  0  0  0  0  0  0  0
   22.2055   72.2423   18.0936 H   0  0  0  0  0  0  0  0  0  0  0  0
   22.7817   71.3979   16.6166 H   0  0  0  0  0  0  0  0  0  0  0  0
   21.1836   72.2180   16.6166 H   0  0  0  0  0  0  0  0  0  0  0  0
   19.3358   70.4300   18.4308 H   0  0  0  0  0  0  0  0  0  0  0  0
   20.0108   68.6405   19.9612 H   0  0  0  0  0  0  0  0  0  0  0  0
   21.6821   69.2428   20.0491 H   0  0  0  0  0  0  0  0  0  0  0  0
   19.6214   69.6257   22.0131 H   0  0  0  0  0  0  0  0  0  0  0  0
   21.1800   70.4379   22.0155 H   0  0  0  0  0  0  0  0  0  0  0  0
   18.5162   71.3306   20.8377 H   0  0  0  0  0  0  0  0  0  0  0  0
   20.4954   72.9776   22.2771 H   0  0  0  0  0  0  0  0  0  0  0  0
   17.8525   71.6263   22.9452 H   0  0  0  0  0  0  0  0  0  0  0  0
   19.4469   71.5853   23.8340 H   0  0  0  0  0  0  0  0  0  0  0  0
   17.9800   73.0717   25.1582 H   0  0  0  0  0  0  0  0  0  0  0  0
   17.3996   75.1743   25.6517 H   0  0  0  0  0  0  0  0  0  0  0  0
   18.7387   76.2422   25.0778 H   0  0  0  0  0  0  0  0  0  0  0  0
   16.3040   77.7319   22.4235 H   0  0  0  0  0  0  0  0  0  0  0  0
   18.0371   77.8525   22.9020 H   0  0  0  0  0  0  0  0  0  0  0  0
   16.6117   75.4534   21.6772 H   0  0  0  0  0  0  0  0  0  0  0  0
   17.9043   76.5230   20.9358 H   0  0  0  0  0  0  0  0  0  0  0  0
   20.2532   76.0089   23.4949 H   0  0  0  0  0  0  0  0  0  0  0  0
   20.7673   75.2679   21.9414 H   0  0  0  0  0  0  0  0  0  0  0  0
   19.8809   76.8303   21.9414 H   0  0  0  0  0  0  0  0  0  0  0  0
   17.6915   73.5572   21.1754 H   0  0  0  0  0  0  0  0  0  0  0  0
   18.5768   74.9439   19.4829 H   0  0  0  0  0  0  0  0  0  0  0  0
   20.2766   74.6783   20.1089 H   0  0  0  0  0  0  0  0  0  0  0  0
   18.4713   72.6229   18.7724 H   0  0  0  0  0  0  0  0  0  0  0  0
   19.9799   73.3836   18.1115 H   0  0  0  0  0  0  0  0  0  0  0  0
   21.9648   72.5034   20.9628 H   0  0  0  0  0  0  0  0  0  0  0  0
   22.4694   71.7279   19.4232 H   0  0  0  0  0  0  0  0  0  0  0  0
   21.8803   73.4248   19.4232 H   0  0  0  0  0  0  0  0  0  0  0  0
   16.4663   69.7104   15.0974 H   0  0  0  0  0  0  0  0  0  0  0  0
   17.2952   68.5986   17.7773 H   0  0  0  0  0  0  0  0  0  0  0  0
   16.4181   70.1160   17.3834 H   0  0  0  0  0  0  0  0  0  0  0  0
   15.5434   68.5470   17.3834 H   0  0  0  0  0  0  0  0  0  0  0  0
   15.7645   66.9995   15.9829 H   0  0  0  0  0  0  0  0  0  0  0  0
   15.2609   67.9215   14.5259 H   0  0  0  0  0  0  0  0  0  0  0  0
   16.8149   67.0206   14.5259 H   0  0  0  0  0  0  0  0  0  0  0  0
  1  2  1  0
  2  3  1  0
  3  4  1  0
  4  5  2  0
  5  6  1  0
  6  7  1  0
  6  8  1  0
  8  9  1  0
  9 10  1  0
 10 11  1  0
 11 12  1  0
 12 13  1  0
 13 14  1  0
 14 15  2  0
 15 16  1  0
 16 17  1  0
 17 18  2  0
 17 19  1  0
 19 20  1  0
 20 21  1  0
 21 22  1  1
 21 23  1  0
 23 24  1  0
 24 25  1  0
 25 26  1  0
 26 27  1  1
  3 28  1  0
 28 29  1  0
 28 30  1  0
 26  8  1  0
 26 11  1  0
 23 12  1  0
 21 15  1  0
  1 31  1  0
  1 32  1  0
  1 33  1  0
  2 34  1  0
  2 35  1  0
  3 36  1  6
  4 37  1  0
  5 38  1  0
  6 39  1  1
  7 40  1  0
  7 41  1  0
  7 42  1  0
  8 43  1  6
  9 44  1  0
  9 45  1  0
 10 46  1  0
 10 47  1  0
 11 48  1  6
 12 49  1  1
 13 50  1  0
 13 51  1  0
 14 52  1  0
 16 53  1  0
 16 54  1  0
 19 55  1  0
 19 56  1  0
 20 57  1  0
 20 58  1  0
 22 59  1  0
 22 60  1  0
 22 61  1  0
 23 62  1  6
 24 63  1  0
 24 64  1  0
 25 65  1  0
 25 66  1  0
 27 67  1  0
 27 68  1  0
 27 69  1  0
 28 70  1  0
 29 71  1  0
 29 72  1  0
 29 73  1  0
 30 74  1  0
 30 75  1  0
 30 76  1  0
M  END
>  <meeko>  (11) 
{"is_sidechain": [false], "free_energy": 1.288, "intermolecular_energy": 1.964, "internal_energy": -0.032}

$$$$
MOL008407_docked
     RDKit          3D

 76 79  0  0  0  0  0  0  0  0999 V2000
   21.8740   75.1300   21.0410 C   0  0  0  0  0  0  0  0  0  0  0  0
   21.1050   76.3340   21.5760 C   0  0  0  0  0  0  0  0  0  0  0  0
   19.9430   75.9420   22.5160 C   0  0  2  0  0  0  0  0  0  0  0  0
   19.8370   74.4350   22.6320 C   0  0  0  0  0  0  0  0  0  0  0  0
   19.1000   73.8040   23.5600 C   0  0  0  0  0  0  0  0  0  0  0  0
   19.0160   72.2950   23.6900 C   0  0  1  0  0  0  0  0  0  0  0  0
   18.5320   71.9750   25.1050 C   0  0  0  0  0  0  0  0  0  0  0  0
   18.1090   71.7020   22.5810 C   0  0  1  0  0  0  0  0  0  0  0  0
   17.0130   72.7120   22.1230 C   0  0  0  0  0  0  0  0  0  0  0  0
   16.7220   72.4200   20.6440 C   0  0  0  0  0  0  0  0  0  0  0  0
   17.4810   71.1300   20.3680 C   0  0  1  0  0  0  0  0  0  0  0  0
   17.7590   70.7580   18.9070 C   0  0  2  0  0  0  0  0  0  0  0  0
   16.4490   70.6440   18.1130 C   0  0  0  0  0  0  0  0  0  0  0  0
   16.6130   69.9610   16.7910 C   0  0  0  0  0  0  0  0  0  0  0  0
   17.6940   69.2500   16.4220 C   0  0  0  0  0  0  0  0  0  0  0  0
   17.7600   68.6510   15.0340 C   0  0  0  0  0  0  0  0  0  0  0  0
   18.2050   67.2040   15.0920 C   0  0  0  0  0  0  0  0  0  0  0  0
   17.6970   66.3380   14.3770 O   0  0  0  0  0  0  0  0  0  0  0  0
   19.4150   66.9060   15.9420 C   0  0  0  0  0  0  0  0  0  0  0  0
   19.2350   67.4940   17.3370 C   0  0  0  0  0  0  0  0  0  0  0  0
   18.8900   69.0110   17.3580 C   0  0  1  0  0  0  0  0  0  0  0  0
   20.0910   69.8290   16.8300 C   0  0  0  0  0  0  0  0  0  0  0  0
   18.5310   69.4110   18.8470 C   0  0  1  0  0  0  0  0  0  0  0  0
   19.7380   69.3740   19.8200 C   0  0  0  0  0  0  0  0  0  0  0  0
   19.4080   69.8590   21.2420 C   0  0  0  0  0  0  0  0  0  0  0  0
   18.7550   71.2520   21.2360 C   0  0  2  0  0  0  0  0  0  0  0  0
   19.7580   72.3120   20.7210 C   0  0  0  0  0  0  0  0  0  0  0  0
   18.6050   76.6090   22.0760 C   0  0  0  0  0  0  0  0  0  0  0  0
   17.6710   76.8400   23.2710 C   0  0  0  0  0  0  0  0  0  0  0  0
   17.8530   75.8540   20.9750 C   0  0  0  0  0  0  0  0  0  0  0  0
   22.2546   74.5341   21.8836 H   0  0  0  0  0  0  0  0  0  0  0  0
   21.2040   74.5104   20.4268 H   0  0  0  0  0  0  0  0  0  0  0  0
   22.7179   75.4773   20.4268 H   0  0  0  0  0  0  0  0  0  0  0  0
   21.8035   76.9767   22.1320 H   0  0  0  0  0  0  0  0  0  0  0  0
   20.6664   76.8537   20.7114 H   0  0  0  0  0  0  0  0  0  0  0  0
   20.1612   76.3288   23.5224 H   0  0  0  0  0  0  0  0  0  0  0  0
   20.3979   73.8207   21.9123 H   0  0  0  0  0  0  0  0  0  0  0  0
   18.5231   74.4174   24.2677 H   0  0  0  0  0  0  0  0  0  0  0  0
   20.0004   71.8260   23.5454 H   0  0  0  0  0  0  0  0  0  0  0  0
   19.2164   72.4275   25.8377 H   0  0  0  0  0  0  0  0  0  0  0  0
   17.5204   72.3829   25.2475 H   0  0  0  0  0  0  0  0  0  0  0  0
   18.5111   70.8845   25.2475 H   0  0  0  0  0  0  0  0  0  0  0  0
   17.7515   70.8082   23.1133 H   0  0  0  0  0  0  0  0  0  0  0  0
   16.1002   72.5758   22.7215 H   0  0  0  0  0  0  0  0  0  0  0  0
   17.3542   73.7490   22.2583 H   0  0  0  0  0  0  0  0  0  0  0  0
   15.6434   72.2825   20.4773 H   0  0  0  0  0  0  0  0  0  0  0  0
   17.0293   73.2425   19.9813 H   0  0  0  0  0  0  0  0  0  0  0  0
   16.8454   70.2719   20.6320 H   0  0  0  0  0  0  0  0  0  0  0  0
   18.3703   71.5528   18.4547 H   0  0  0  0  0  0  0  0  0  0  0  0
   15.7259   70.0726   18.7134 H   0  0  0  0  0  0  0  0  0  0  0  0
   16.1026   71.6679   17.9089 H   0  0  0  0  0  0  0  0  0  0  0  0
   15.7887   70.0468   16.0677 H   0  0  0  0  0  0  0  0  0  0  0  0
   16.7635   68.7034   14.5711 H   0  0  0  0  0  0  0  0  0  0  0  0
   18.4895   69.2202   14.4392 H   0  0  0  0  0  0  0  0  0  0  0  0
   19.5446   65.8165   16.0207 H   0  0  0  0  0  0  0  0  0  0  0  0
   20.3027   67.3565   15.4740 H   0  0  0  0  0  0  0  0  0  0  0  0
   18.4204   66.9494   17.8369 H   0  0  0  0  0  0  0  0  0  0  0  0
   20.2024   67.3860   17.8493 H   0  0  0  0  0  0  0  0  0  0  0  0
   20.6686   70.2224   17.6795 H   0  0  0  0  0  0  0  0  0  0  0  0
   20.7351   69.1810   16.2174 H   0  0  0  0  0  0  0  0  0  0  0  0
   19.7239   70.6656   16.2174 H   0  0  0  0  0  0  0  0  0  0  0  0
   17.8542   68.6247   19.2126 H   0  0  0  0  0  0  0  0  0  0  0  0
   20.1002   68.3373   19.8831 H   0  0  0  0  0  0  0  0  0  0  0  0
   20.4949   70.0622   19.4158 H   0  0  0  0  0  0  0  0  0  0  0  0
   18.7156   69.1437   21.7100 H   0  0  0  0  0  0  0  0  0  0  0  0
   20.3498   69.9265   21.8063 H   0  0  0  0  0  0  0  0  0  0  0  0
   20.2329   72.8138   21.5770 H   0  0  0  0  0  0  0  0  0  0  0  0
   20.5294   71.8205   20.1100 H   0  0  0  0  0  0  0  0  0  0  0  0
   19.2247   73.0551   20.1100 H   0  0  0  0  0  0  0  0  0  0  0  0
   18.9074   77.5753   21.6461 H   0  0  0  0  0  0  0  0  0  0  0  0
   18.2320   76.7013   24.2070 H   0  0  0  0  0  0  0  0  0  0  0  0
   17.2713   77.8641   23.2314 H   0  0  0  0  0  0  0  0  0  0  0  0
   16.8401   76.1203   23.2314 H   0  0  0  0  0  0  0  0  0  0  0  0
   17.1472   75.1453   21.4328 H   0  0  0  0  0  0  0  0  0  0  0  0
   17.2996   76.5711   20.3509 H   0  0  0  0  0  0  0  0  0  0  0  0
   18.5723   75.3035   20.3509 H   0  0  0  0  0  0  0  0  0  0  0  0
  1  2  1  0
  2  3  1  0
  3  4  1  0
  4  5  2  0
  5  6  1  0
  6  7  1  0
  6  8  1  0
  8  9  1  0
  9 10  1  0
 10 11  1  0
 11 12  1  0
 12 13  1  0
 13 14  1  0
 14 15  2  0
 15 16  1  0
 16 17  1  0
 17 18  2  0
 17 19  1  0
 19 20  1  0
 20 21  1  0
 21 22  1  6
 21 23  1  0
 23 24  1  0
 24 25  1  0
 25 26  1  0
 26 27  1  6
  3 28  1  0
 28 29  1  0
 28 30  1  0
 26  8  1  0
 26 11  1  0
 23 12  1  0
 21 15  1  0
  1 31  1  0
  1 32  1  0
  1 33  1  0
  2 34  1  0
  2 35  1  0
  3 36  1  1
  4 37  1  0
  5 38  1  0
  6 39  1  6
  7 40  1  0
  7 41  1  0
  7 42  1  0
  8 43  1  1
  9 44  1  0
  9 45  1  0
 10 46  1  0
 10 47  1  0
 11 48  1  1
 12 49  1  6
 13 50  1  0
 13 51  1  0
 14 52  1  0
 16 53  1  0
 16 54  1  0
 19 55  1  0
 19 56  1  0
 20 57  1  0
 20 58  1  0
 22 59  1  0
 22 60  1  0
 22 61  1  0
 23 62  1  1
 24 63  1  0
 24 64  1  0
 25 65  1  0
 25 66  1  0
 27 67  1  0
 27 68  1  0
 27 69  1  0
 28 70  1  0
 29 71  1  0
 29 72  1  0
 29 73  1  0
 30 74  1  0
 30 75  1  0
 30 76  1  0
M  END
>  <meeko>  (12) 
{"is_sidechain": [false], "free_energy": 2.004, "intermolecular_energy": 3.212, "internal_energy": -0.355}

$$$$
MOL008407_docked
     RDKit          3D

 76 79  0  0  0  0  0  0  0  0999 V2000
   21.1540   75.9500   22.0800 C   0  0  0  0  0  0  0  0  0  0  0  0
   19.6820   76.1150   21.7190 C   0  0  0  0  0  0  0  0  0  0  0  0
   18.7760   76.3390   22.9500 C   0  0  2  0  0  0  0  0  0  0  0  0
   18.6700   75.0700   23.7700 C   0  0  0  0  0  0  0  0  0  0  0  0
   19.3210   73.9330   23.4800 C   0  0  0  0  0  0  0  0  0  0  0  0
   19.1930   72.6560   24.2890 C   0  0  1  0  0  0  0  0  0  0  0  0
   18.2590   72.9410   25.4650 C   0  0  0  0  0  0  0  0  0  0  0  0
   18.7110   71.4870   23.3900 C   0  0  1  0  0  0  0  0  0  0  0  0
   17.2080   71.1500   23.6300 C   0  0  0  0  0  0  0  0  0  0  0  0
   16.6470   70.6260   22.3010 C   0  0  0  0  0  0  0  0  0  0  0  0
   17.8770   70.4690   21.4190 C   0  0  1  0  0  0  0  0  0  0  0  0
   17.6670   70.3620   19.9040 C   0  0  2  0  0  0  0  0  0  0  0  0
   16.7590   69.1710   19.5610 C   0  0  0  0  0  0  0  0  0  0  0  0
   16.7860   68.8010   18.1110 C   0  0  0  0  0  0  0  0  0  0  0  0
   17.7010   69.2340   17.2240 C   0  0  0  0  0  0  0  0  0  0  0  0
   17.5870   68.8290   15.7710 C   0  0  0  0  0  0  0  0  0  0  0  0
   18.9230   68.3530   15.2370 C   0  0  0  0  0  0  0  0  0  0  0  0
   19.0140   67.3820   14.4850 O   0  0  0  0  0  0  0  0  0  0  0  0
   20.1150   69.2280   15.5350 C   0  0  0  0  0  0  0  0  0  0  0  0
   20.1830   69.5360   17.0260 C   0  0  0  0  0  0  0  0  0  0  0  0
   18.8780   70.1390   17.6210 C   0  0  1  0  0  0  0  0  0  0  0  0
   18.6330   71.5460   17.0260 C   0  0  0  0  0  0  0  0  0  0  0  0
   19.0400   70.2000   19.1940 C   0  0  1  0  0  0  0  0  0  0  0  0
   20.0870   71.2330   19.6830 C   0  0  0  0  0  0  0  0  0  0  0  0
   20.1700   71.3620   21.2130 C   0  0  0  0  0  0  0  0  0  0  0  0
   18.7930   71.6420   21.8410 C   0  0  2  0  0  0  0  0  0  0  0  0
   18.2720   73.0290   21.3940 C   0  0  0  0  0  0  0  0  0  0  0  0
   17.3860   76.9110   22.5390 C   0  0  0  0  0  0  0  0  0  0  0  0
   16.4600   77.0700   23.7510 C   0  0  0  0  0  0  0  0  0  0  0  0
   16.6690   76.1070   21.4480 C   0  0  0  0  0  0  0  0  0  0  0  0
   21.2640   75.9377   23.1744 H   0  0  0  0  0  0  0  0  0  0  0  0
   21.5300   75.0041   21.6630 H   0  0  0  0  0  0  0  0  0  0  0  0
   21.7301   76.7892   21.6630 H   0  0  0  0  0  0  0  0  0  0  0  0
   19.5813   76.9810   21.0483 H   0  0  0  0  0  0  0  0  0  0  0  0
   19.3561   75.1808   21.2384 H   0  0  0  0  0  0  0  0  0  0  0  0
   19.2408   77.1012   23.5927 H   0  0  0  0  0  0  0  0  0  0  0  0
   18.0198   75.0811   24.6572 H   0  0  0  0  0  0  0  0  0  0  0  0
   19.9866   73.9265   22.6042 H   0  0  0  0  0  0  0  0  0  0  0  0
   20.1669   72.3365   24.6884 H   0  0  0  0  0  0  0  0  0  0  0  0
   18.7981   72.7765   26.4096 H   0  0  0  0  0  0  0  0  0  0  0  0
   17.9155   73.9848   25.4158 H   0  0  0  0  0  0  0  0  0  0  0  0
   17.3913   72.2668   25.4158 H   0  0  0  0  0  0  0  0  0  0  0  0
   19.4347   70.7201   23.7034 H   0  0  0  0  0  0  0  0  0  0  0  0
   17.1135   70.3798   24.4096 H   0  0  0  0  0  0  0  0  0  0  0  0
   16.6552   72.0399   23.9654 H   0  0  0  0  0  0  0  0  0  0  0  0
   16.1421   69.6592   22.4437 H   0  0  0  0  0  0  0  0  0  0  0  0
   15.8954   71.2996   21.8636 H   0  0  0  0  0  0  0  0  0  0  0  0
   18.3198   69.4765   21.5891 H   0  0  0  0  0  0  0  0  0  0  0  0
   17.1784   71.2831   19.5535 H   0  0  0  0  0  0  0  0  0  0  0  0
   17.0877   68.3013   20.1489 H   0  0  0  0  0  0  0  0  0  0  0  0
   15.7277   69.4693   19.8008 H   0  0  0  0  0  0  0  0  0  0  0  0
   15.9999   68.1252   17.7431 H   0  0  0  0  0  0  0  0  0  0  0  0
   16.8521   68.0155   15.6802 H   0  0  0  0  0  0  0  0  0  0  0  0
   17.2656   69.7034   15.1861 H   0  0  0  0  0  0  0  0  0  0  0  0
   21.0340   68.7063   15.2296 H   0  0  0  0  0  0  0  0  0  0  0  0
   20.0156   70.1714   14.9781 H   0  0  0  0  0  0  0  0  0  0  0  0
   20.4037   68.6002   17.5603 H   0  0  0  0  0  0  0  0  0  0  0  0
   20.9656   70.2986   17.1523 H   0  0  0  0  0  0  0  0  0  0  0  0
   18.5065   72.2724   17.8423 H   0  0  0  0  0  0  0  0  0  0  0  0
   19.4940   71.8371   16.4063 H   0  0  0  0  0  0  0  0  0  0  0  0
   17.7243   71.5289   16.4063 H   0  0  0  0  0  0  0  0  0  0  0  0
   19.4535   69.2244   19.4894 H   0  0  0  0  0  0  0  0  0  0  0  0
   21.0750   70.9286   19.3073 H   0  0  0  0  0  0  0  0  0  0  0  0
   19.7712   72.2136   19.2973 H   0  0  0  0  0  0  0  0  0  0  0  0
   20.5659   70.4234   21.6280 H   0  0  0  0  0  0  0  0  0  0  0  0
   20.8306   72.2095   21.4483 H   0  0  0  0  0  0  0  0  0  0  0  0
   18.0432   73.6380   22.2810 H   0  0  0  0  0  0  0  0  0  0  0  0
   19.0420   73.5332   20.7916 H   0  0  0  0  0  0  0  0  0  0  0  0
   17.3604   72.9016   20.7916 H   0  0  0  0  0  0  0  0  0  0  0  0
   17.6110   77.8985   22.1097 H   0  0  0  0  0  0  0  0  0  0  0  0
   17.0464   76.9693   24.6762 H   0  0  0  0  0  0  0  0  0  0  0  0
   15.9867   78.0626   23.7231 H   0  0  0  0  0  0  0  0  0  0  0  0
   15.6827   76.2922   23.7231 H   0  0  0  0  0  0  0  0  0  0  0  0
   16.0064   75.3640   21.9158 H   0  0  0  0  0  0  0  0  0  0  0  0
   16.0728   76.7879   20.8228 H   0  0  0  0  0  0  0  0  0  0  0  0
   17.4134   75.5923   20.8228 H   0  0  0  0  0  0  0  0  0  0  0  0
  1  2  1  0
  2  3  1  0
  3  4  1  0
  4  5  2  0
  5  6  1  0
  6  7  1  0
  6  8  1  0
  8  9  1  0
  9 10  1  0
 10 11  1  0
 11 12  1  0
 12 13  1  0
 13 14  1  0
 14 15  2  0
 15 16  1  0
 16 17  1  0
 17 18  2  0
 17 19  1  0
 19 20  1  0
 20 21  1  0
 21 22  1  6
 21 23  1  0
 23 24  1  0
 24 25  1  0
 25 26  1  0
 26 27  1  1
  3 28  1  0
 28 29  1  0
 28 30  1  0
 26  8  1  0
 26 11  1  0
 23 12  1  0
 21 15  1  0
  1 31  1  0
  1 32  1  0
  1 33  1  0
  2 34  1  0
  2 35  1  0
  3 36  1  1
  4 37  1  0
  5 38  1  0
  6 39  1  1
  7 40  1  0
  7 41  1  0
  7 42  1  0
  8 43  1  1
  9 44  1  0
  9 45  1  0
 10 46  1  0
 10 47  1  0
 11 48  1  1
 12 49  1  6
 13 50  1  0
 13 51  1  0
 14 52  1  0
 16 53  1  0
 16 54  1  0
 19 55  1  0
 19 56  1  0
 20 57  1  0
 20 58  1  0
 22 59  1  0
 22 60  1  0
 22 61  1  0
 23 62  1  1
 24 63  1  0
 24 64  1  0
 25 65  1  0
 25 66  1  0
 27 67  1  0
 27 68  1  0
 27 69  1  0
 28 70  1  0
 29 71  1  0
 29 72  1  0
 29 73  1  0
 30 74  1  0
 30 75  1  0
 30 76  1  0
M  END
>  <meeko>  (13) 
{"is_sidechain": [false], "free_energy": 2.671, "intermolecular_energy": 2.983, "internal_energy": 0.737}

$$$$
MOL008407_docked
     RDKit          3D

 76 79  0  0  0  0  0  0  0  0999 V2000
   18.2040   77.4470   20.8590 C   0  0  0  0  0  0  0  0  0  0  0  0
   17.7610   78.1770   22.1230 C   0  0  0  0  0  0  0  0  0  0  0  0
   17.7970   77.2830   23.3830 C   0  0  2  0  0  0  0  0  0  0  0  0
   18.3460   75.9130   23.0480 C   0  0  0  0  0  0  0  0  0  0  0  0
   18.6450   74.9790   23.9660 C   0  0  0  0  0  0  0  0  0  0  0  0
   19.2190   73.6160   23.6290 C   0  0  1  0  0  0  0  0  0  0  0  0
   18.2510   72.5580   24.1600 C   0  0  0  0  0  0  0  0  0  0  0  0
   19.4840   73.4980   22.1060 C   0  0  1  0  0  0  0  0  0  0  0  0
   20.9750   73.7790   21.7500 C   0  0  0  0  0  0  0  0  0  0  0  0
   21.3080   72.9380   20.5100 C   0  0  0  0  0  0  0  0  0  0  0  0
   19.9600   72.3850   20.0680 C   0  0  1  0  0  0  0  0  0  0  0  0
   19.9520   71.1810   19.1190 C   0  0  2  0  0  0  0  0  0  0  0  0
   20.7120   71.5030   17.8220 C   0  0  0  0  0  0  0  0  0  0  0  0
   20.4590   70.5170   16.7250 C   0  0  0  0  0  0  0  0  0  0  0  0
   19.4680   69.6070   16.7230 C   0  0  0  0  0  0  0  0  0  0  0  0
   19.3500   68.6280   15.5740 C   0  0  0  0  0  0  0  0  0  0  0  0
   17.9220   68.5500   15.0760 C   0  0  0  0  0  0  0  0  0  0  0  0
   17.6550   68.4810   13.8760 O   0  0  0  0  0  0  0  0  0  0  0  0
   16.8520   68.3880   16.1270 C   0  0  0  0  0  0  0  0  0  0  0  0
   17.0110   69.4490   17.2090 C   0  0  0  0  0  0  0  0  0  0  0  0
   18.4280   69.5090   17.8510 C   0  0  1  0  0  0  0  0  0  0  0  0
   18.6970   68.2120   18.6480 C   0  0  0  0  0  0  0  0  0  0  0  0
   18.4880   70.7830   18.7870 C   0  0  1  0  0  0  0  0  0  0  0  0
   17.5990   70.6810   20.0530 C   0  0  0  0  0  0  0  0  0  0  0  0
   17.7360   71.8760   21.0110 C   0  0  0  0  0  0  0  0  0  0  0  0
   19.2030   72.1390   21.3940 C   0  0  2  0  0  0  0  0  0  0  0  0
   19.7620   70.9560   22.2190 C   0  0  0  0  0  0  0  0  0  0  0  0
   16.4020   77.2230   24.0770 C   0  0  0  0  0  0  0  0  0  0  0  0
   15.4160   76.3550   23.2850 C   0  0  0  0  0  0  0  0  0  0  0  0
   15.7730   78.5920   24.3540 C   0  0  0  0  0  0  0  0  0  0  0  0
   18.7563   76.5369   21.1357 H   0  0  0  0  0  0  0  0  0  0  0  0
   17.3197   77.1729   20.2649 H   0  0  0  0  0  0  0  0  0  0  0  0
   18.8554   78.1048   20.2649 H   0  0  0  0  0  0  0  0  0  0  0  0
   18.4293   79.0358   22.2838 H   0  0  0  0  0  0  0  0  0  0  0  0
   16.7173   78.4901   21.9724 H   0  0  0  0  0  0  0  0  0  0  0  0
   18.4834   77.7345   24.1144 H   0  0  0  0  0  0  0  0  0  0  0  0
   18.5101   75.6672   21.9885 H   0  0  0  0  0  0  0  0  0  0  0  0
   18.4629   75.2166   25.0245 H   0  0  0  0  0  0  0  0  0  0  0  0
   20.1968   73.4641   24.1094 H   0  0  0  0  0  0  0  0  0  0  0  0
   18.2620   72.5700   25.2599 H   0  0  0  0  0  0  0  0  0  0  0  0
   17.2347   72.7777   23.8010 H   0  0  0  0  0  0  0  0  0  0  0  0
   18.5600   71.5652   23.8010 H   0  0  0  0  0  0  0  0  0  0  0  0
   18.7542   74.2389   21.7476 H   0  0  0  0  0  0  0  0  0  0  0  0
   21.1157   74.8476   21.5303 H   0  0  0  0  0  0  0  0  0  0  0  0
   21.6347   73.5167   22.5902 H   0  0  0  0  0  0  0  0  0  0  0  0
   21.7520   73.5630   19.7212 H   0  0  0  0  0  0  0  0  0  0  0  0
   22.0425   72.1464   20.7197 H   0  0  0  0  0  0  0  0  0  0  0  0
   19.4703   73.1136   19.4052 H   0  0  0  0  0  0  0  0  0  0  0  0
   20.4563   70.3404   19.6180 H   0  0  0  0  0  0  0  0  0  0  0  0
   20.4015   72.4992   17.4740 H   0  0  0  0  0  0  0  0  0  0  0  0
   21.7861   71.4606   18.0557 H   0  0  0  0  0  0  0  0  0  0  0  0
   21.1331   70.5378   15.8560 H   0  0  0  0  0  0  0  0  0  0  0  0
   20.0010   68.9581   14.7511 H   0  0  0  0  0  0  0  0  0  0  0  0
   19.6540   67.6319   15.9280 H   0  0  0  0  0  0  0  0  0  0  0  0
   15.8628   68.4934   15.6575 H   0  0  0  0  0  0  0  0  0  0  0  0
   16.9468   67.3922   16.5846 H   0  0  0  0  0  0  0  0  0  0  0  0
   16.7944   70.4305   16.7622 H   0  0  0  0  0  0  0  0  0  0  0  0
   16.3132   69.1802   18.0157 H   0  0  0  0  0  0  0  0  0  0  0  0
   18.6522   68.4279   19.7257 H   0  0  0  0  0  0  0  0  0  0  0  0
   17.9357   67.4602   18.3927 H   0  0  0  0  0  0  0  0  0  0  0  0
   19.6945   67.8250   18.3927 H   0  0  0  0  0  0  0  0  0  0  0  0
   18.0461   71.6030   18.2019 H   0  0  0  0  0  0  0  0  0  0  0  0
   16.5487   70.6123   19.7335 H   0  0  0  0  0  0  0  0  0  0  0  0
   17.9326   69.7902   20.6054 H   0  0  0  0  0  0  0  0  0  0  0  0
   17.3301   72.7732   20.5208 H   0  0  0  0  0  0  0  0  0  0  0  0
   17.1803   71.6411   21.9308 H   0  0  0  0  0  0  0  0  0  0  0  0
   19.6582   71.1757   23.2918 H   0  0  0  0  0  0  0  0  0  0  0  0
   19.2006   70.0418   21.9759 H   0  0  0  0  0  0  0  0  0  0  0  0
   20.8247   70.8092   21.9759 H   0  0  0  0  0  0  0  0  0  0  0  0
   16.6012   76.7634   25.0563 H   0  0  0  0  0  0  0  0  0  0  0  0
   14.7784   75.7937   23.9838 H   0  0  0  0  0  0  0  0  0  0  0  0
   14.7878   76.9986   22.6516 H   0  0  0  0  0  0  0  0  0  0  0  0
   15.9747   75.6503   22.6516 H   0  0  0  0  0  0  0  0  0  0  0  0
   15.7007   78.7493   25.4403 H   0  0  0  0  0  0  0  0  0  0  0  0
   16.3994   79.3799   23.9103 H   0  0  0  0  0  0  0  0  0  0  0  0
   14.7672   78.6299   23.9103 H   0  0  0  0  0  0  0  0  0  0  0  0
  1  2  1  0
  2  3  1  0
  3  4  1  0
  4  5  2  0
  5  6  1  0
  6  7  1  0
  6  8  1  0
  8  9  1  0
  9 10  1  0
 10 11  1  0
 11 12  1  0
 12 13  1  0
 13 14  1  0
 14 15  2  0
 15 16  1  0
 16 17  1  0
 17 18  2  0
 17 19  1  0
 19 20  1  0
 20 21  1  0
 21 22  1  1
 21 23  1  0
 23 24  1  0
 24 25  1  0
 25 26  1  0
 26 27  1  1
  3 28  1  0
 28 29  1  0
 28 30  1  0
 26  8  1  0
 26 11  1  0
 23 12  1  0
 21 15  1  0
  1 31  1  0
  1 32  1  0
  1 33  1  0
  2 34  1  0
  2 35  1  0
  3 36  1  1
  4 37  1  0
  5 38  1  0
  6 39  1  1
  7 40  1  0
  7 41  1  0
  7 42  1  0
  8 43  1  6
  9 44  1  0
  9 45  1  0
 10 46  1  0
 10 47  1  0
 11 48  1  6
 12 49  1  1
 13 50  1  0
 13 51  1  0
 14 52  1  0
 16 53  1  0
 16 54  1  0
 19 55  1  0
 19 56  1  0
 20 57  1  0
 20 58  1  0
 22 59  1  0
 22 60  1  0
 22 61  1  0
 23 62  1  6
 24 63  1  0
 24 64  1  0
 25 65  1  0
 25 66  1  0
 27 67  1  0
 27 68  1  0
 27 69  1  0
 28 70  1  0
 29 71  1  0
 29 72  1  0
 29 73  1  0
 30 74  1  0
 30 75  1  0
 30 76  1  0
M  END
>  <meeko>  (14) 
{"is_sidechain": [false], "free_energy": 2.676, "intermolecular_energy": 4.105, "internal_energy": -0.378}

$$$$
MOL008407_docked
     RDKit          3D

 76 79  0  0  0  0  0  0  0  0999 V2000
   21.2640   70.7160   16.8600 C   0  0  0  0  0  0  0  0  0  0  0  0
   20.6740   69.6060   15.9970 C   0  0  0  0  0  0  0  0  0  0  0  0
   19.1350   69.5150   16.0920 C   0  0  2  0  0  0  0  0  0  0  0  0
   18.6900   69.5210   17.5400 C   0  0  0  0  0  0  0  0  0  0  0  0
   18.7940   68.4630   18.3600 C   0  0  0  0  0  0  0  0  0  0  0  0
   18.3240   68.4630   19.8030 C   0  0  1  0  0  0  0  0  0  0  0  0
   18.6930   67.1110   20.4140 C   0  0  0  0  0  0  0  0  0  0  0  0
   18.9260   69.6690   20.5710 C   0  0  1  0  0  0  0  0  0  0  0  0
   20.3850   69.9790   20.1200 C   0  0  0  0  0  0  0  0  0  0  0  0
   20.5970   71.4890   20.2860 C   0  0  0  0  0  0  0  0  0  0  0  0
   19.3510   71.9560   21.0270 C   0  0  1  0  0  0  0  0  0  0  0  0
   19.0190   73.4520   21.0050 C   0  0  2  0  0  0  0  0  0  0  0  0
   20.1780   74.2780   21.5850 C   0  0  0  0  0  0  0  0  0  0  0  0
   19.7980   75.6890   21.9090 C   0  0  0  0  0  0  0  0  0  0  0  0
   18.5350   76.1480   21.9810 C   0  0  0  0  0  0  0  0  0  0  0  0
   18.2840   77.6130   22.2660 C   0  0  0  0  0  0  0  0  0  0  0  0
   17.2270   77.7810   23.3380 C   0  0  0  0  0  0  0  0  0  0  0  0
   17.3270   78.6340   24.2210 O   0  0  0  0  0  0  0  0  0  0  0  0
   15.9680   76.9670   23.1720 C   0  0  0  0  0  0  0  0  0  0  0  0
   16.3140   75.5000   22.9500 C   0  0  0  0  0  0  0  0  0  0  0  0
   17.3100   75.2420   21.7820 C   0  0  1  0  0  0  0  0  0  0  0  0
   16.6450   75.6100   20.4360 C   0  0  0  0  0  0  0  0  0  0  0  0
   17.7240   73.7150   21.8220 C   0  0  1  0  0  0  0  0  0  0  0  0
   16.5790   72.7390   21.4480 C   0  0  0  0  0  0  0  0  0  0  0  0
   17.0090   71.2640   21.3880 C   0  0  0  0  0  0  0  0  0  0  0  0
   18.2240   71.0570   20.4660 C   0  0  2  0  0  0  0  0  0  0  0  0
   17.8450   71.3770   19.0010 C   0  0  0  0  0  0  0  0  0  0  0  0
   18.5860   68.2930   15.2960 C   0  0  0  0  0  0  0  0  0  0  0  0
   17.0540   68.2300   15.3460 C   0  0  0  0  0  0  0  0  0  0  0  0
   19.1700   66.9430   15.7250 C   0  0  0  0  0  0  0  0  0  0  0  0
   21.1304   70.4646   17.9225 H   0  0  0  0  0  0  0  0  0  0  0  0
   22.3367   70.8205   16.6400 H   0  0  0  0  0  0  0  0  0  0  0  0
   20.7506   71.6636   16.6400 H   0  0  0  0  0  0  0  0  0  0  0  0
   20.9491   69.7944   14.9488 H   0  0  0  0  0  0  0  0  0  0  0  0
   21.0814   68.6532   16.3660 H   0  0  0  0  0  0  0  0  0  0  0  0
   18.7015   70.4076   15.6173 H   0  0  0  0  0  0  0  0  0  0  0  0
   18.2557   70.4475   17.9437 H   0  0  0  0  0  0  0  0  0  0  0  0
   19.2463   67.5424   17.9627 H   0  0  0  0  0  0  0  0  0  0  0  0
   17.2330   68.5872   19.8682 H   0  0  0  0  0  0  0  0  0  0  0  0
   18.6724   67.1866   21.5112 H   0  0  0  0  0  0  0  0  0  0  0  0
   17.9696   66.3503   20.0852 H   0  0  0  0  0  0  0  0  0  0  0  0
   19.7025   66.8233   20.0852 H   0  0  0  0  0  0  0  0  0  0  0  0
   18.8079   69.2930   21.5980 H   0  0  0  0  0  0  0  0  0  0  0  0
   21.0995   69.4264   20.7478 H   0  0  0  0  0  0  0  0  0  0  0  0
   20.5452   69.6736   19.0755 H   0  0  0  0  0  0  0  0  0  0  0  0
   21.5027   71.6943   20.8756 H   0  0  0  0  0  0  0  0  0  0  0  0
   20.7368   72.0054   19.3248 H   0  0  0  0  0  0  0  0  0  0  0  0
   19.5103   71.8452   22.1097 H   0  0  0  0  0  0  0  0  0  0  0  0
   18.8628   73.7587   19.9602 H   0  0  0  0  0  0  0  0  0  0  0  0
   20.5266   73.7902   22.5072 H   0  0  0  0  0  0  0  0  0  0  0  0
   20.9629   74.3214   20.8156 H   0  0  0  0  0  0  0  0  0  0  0  0
   20.6114   76.4038   22.1026 H   0  0  0  0  0  0  0  0  0  0  0  0
   19.2202   78.0793   22.6069 H   0  0  0  0  0  0  0  0  0  0  0  0
   17.9289   78.0951   21.3432 H   0  0  0  0  0  0  0  0  0  0  0  0
   15.3522   77.0617   24.0785 H   0  0  0  0  0  0  0  0  0  0  0  0
   15.4123   77.3403   22.2991 H   0  0  0  0  0  0  0  0  0  0  0  0
   16.7610   75.1084   23.8757 H   0  0  0  0  0  0  0  0  0  0  0  0
   15.3755   74.9945   22.6786 H   0  0  0  0  0  0  0  0  0  0  0  0
   15.6971   76.1346   20.6266 H   0  0  0  0  0  0  0  0  0  0  0  0
   17.3172   76.2645   19.8618 H   0  0  0  0  0  0  0  0  0  0  0  0
   16.4475   74.6928   19.8618 H   0  0  0  0  0  0  0  0  0  0  0  0
   17.9457   73.4941   22.8765 H   0  0  0  0  0  0  0  0  0  0  0  0
   15.7819   72.8366   22.1998 H   0  0  0  0  0  0  0  0  0  0  0  0
   16.2438   73.0141   20.4371 H   0  0  0  0  0  0  0  0  0  0  0  0
   17.2711   70.9285   22.4023 H   0  0  0  0  0  0  0  0  0  0  0  0
   16.1696   70.6806   20.9817 H   0  0  0  0  0  0  0  0  0  0  0  0
   17.0046   72.0866   18.9863 H   0  0  0  0  0  0  0  0  0  0  0  0
   18.7098   71.8223   18.4874 H   0  0  0  0  0  0  0  0  0  0  0  0
   17.5510   70.4498   18.4874 H   0  0  0  0  0  0  0  0  0  0  0  0
   18.9190   68.4663   14.2620 H   0  0  0  0  0  0  0  0  0  0  0  0
   16.7216   68.2163   16.3945 H   0  0  0  0  0  0  0  0  0  0  0  0
   16.6340   69.1116   14.8397 H   0  0  0  0  0  0  0  0  0  0  0  0
   16.7079   67.3169   14.8397 H   0  0  0  0  0  0  0  0  0  0  0  0
   19.1945   66.8864   16.8233 H   0  0  0  0  0  0  0  0  0  0  0  0
   18.5431   66.1301   15.3299 H   0  0  0  0  0  0  0  0  0  0  0  0
   20.1917   66.8433   15.3299 H   0  0  0  0  0  0  0  0  0  0  0  0
  1  2  1  0
  2  3  1  0
  3  4  1  0
  4  5  2  0
  5  6  1  0
  6  7  1  0
  6  8  1  0
  8  9  1  0
  9 10  1  0
 10 11  1  0
 11 12  1  0
 12 13  1  0
 13 14  1  0
 14 15  2  0
 15 16  1  0
 16 17  1  0
 17 18  2  0
 17 19  1  0
 19 20  1  0
 20 21  1  0
 21 22  1  6
 21 23  1  0
 23 24  1  0
 24 25  1  0
 25 26  1  0
 26 27  1  6
  3 28  1  0
 28 29  1  0
 28 30  1  0
 26  8  1  0
 26 11  1  0
 23 12  1  0
 21 15  1  0
  1 31  1  0
  1 32  1  0
  1 33  1  0
  2 34  1  0
  2 35  1  0
  3 36  1  6
  4 37  1  0
  5 38  1  0
  6 39  1  6
  7 40  1  0
  7 41  1  0
  7 42  1  0
  8 43  1  1
  9 44  1  0
  9 45  1  0
 10 46  1  0
 10 47  1  0
 11 48  1  1
 12 49  1  6
 13 50  1  0
 13 51  1  0
 14 52  1  0
 16 53  1  0
 16 54  1  0
 19 55  1  0
 19 56  1  0
 20 57  1  0
 20 58  1  0
 22 59  1  0
 22 60  1  0
 22 61  1  0
 23 62  1  1
 24 63  1  0
 24 64  1  0
 25 65  1  0
 25 66  1  0
 27 67  1  0
 27 68  1  0
 27 69  1  0
 28 70  1  0
 29 71  1  0
 29 72  1  0
 29 73  1  0
 30 74  1  0
 30 75  1  0
 30 76  1  0
M  END
>  <meeko>  (15) 
{"is_sidechain": [false], "free_energy": 3.437, "intermolecular_energy": 3.544, "internal_energy": 1.166}

$$$$
