14807783
 OpenBabel09272609553D

 76 79  0  0  1  0  0  0  0  0999 V2000
    8.1125    0.3779   -1.0687 O   0  0  0  0  0  0  0  0  0  0  0  0
   -0.2276   -0.5964    0.2686 C   0  0  1  0  0  0  0  0  0  0  0  0
    0.4939    0.6883   -0.2035 C   0  0  2  0  0  0  0  0  0  0  0  0
    1.9442    0.7973    0.2822 C   0  0  1  0  0  0  0  0  0  0  0  0
    2.7548   -0.4350   -0.2063 C   0  0  1  0  0  0  0  0  0  0  0  0
   -1.6444   -0.3290   -0.3257 C   0  0  2  0  0  0  0  0  0  0  0  0
    0.5441   -1.7763   -0.3472 C   0  0  0  0  0  0  0  0  0  0  0  0
   -0.4687    1.8076    0.1650 C   0  0  0  0  0  0  0  0  0  0  0  0
    4.2477   -0.3937    0.3170 C   0  0  2  0  0  0  0  0  0  0  0  0
    2.0244   -1.7740    0.0710 C   0  0  0  0  0  0  0  0  0  0  0  0
   -1.8566    1.1906   -0.0550 C   0  0  0  0  0  0  0  0  0  0  0  0
    2.5968    2.0887   -0.2341 C   0  0  0  0  0  0  0  0  0  0  0  0
   -0.2921   -0.7428    1.8081 C   0  0  0  0  0  0  0  0  0  0  0  0
   -2.8415   -1.1800    0.1725 C   0  0  2  0  0  0  0  0  0  0  0  0
    4.8412    1.0167    0.1742 C   0  0  0  0  0  0  0  0  0  0  0  0
    5.0904   -1.3707   -0.5543 C   0  0  0  0  0  0  0  0  0  0  0  0
    4.0865    2.0990   -0.0916 C   0  0  0  0  0  0  0  0  0  0  0  0
    4.3347   -0.8104    1.8041 C   0  0  0  0  0  0  0  0  0  0  0  0
    6.3373    1.1687    0.3459 C   0  0  0  0  0  0  0  0  0  0  0  0
    6.5924   -1.3039   -0.3064 C   0  0  0  0  0  0  0  0  0  0  0  0
   -2.6714   -2.6770   -0.0921 C   0  0  0  0  0  0  0  0  0  0  0  0
   -4.1267   -0.7347   -0.4985 C   0  0  0  0  0  0  0  0  0  0  0  0
    7.0810    0.1159   -0.4493 C   0  0  0  0  0  0  0  0  0  0  0  0
   -5.2164   -0.3248    0.1723 C   0  0  0  0  0  0  0  0  0  0  0  0
   -6.5098    0.0964   -0.4935 C   0  0  2  0  0  0  0  0  0  0  0  0
   -6.8607    1.5925   -0.2389 C   0  0  0  0  0  0  0  0  0  0  0  0
   -7.6668   -0.8349   -0.0674 C   0  0  0  0  0  0  0  0  0  0  0  0
   -5.8015    2.5288   -0.8331 C   0  0  0  0  0  0  0  0  0  0  0  0
   -7.0920    1.9481    1.2337 C   0  0  0  0  0  0  0  0  0  0  0  0
   -7.4983   -2.2665   -0.5651 C   0  0  0  0  0  0  0  0  0  0  0  0
    0.6806    0.7172   -1.2567 H   0  0  0  0  0  0  0  0  0  0  0  0
    1.9436    0.8233    1.3519 H   0  0  0  0  0  0  0  0  0  0  0  0
    2.8187   -0.3775   -1.2728 H   0  0  0  0  0  0  0  0  0  0  0  0
   -1.6449   -0.6283   -1.3530 H   0  0  0  0  0  0  0  0  0  0  0  0
    0.4858   -1.7090   -1.4135 H   0  0  0  0  0  0  0  0  0  0  0  0
    0.1008   -2.6835    0.0069 H   0  0  0  0  0  0  0  0  0  0  0  0
   -0.3252    2.6571   -0.4695 H   0  0  0  0  0  0  0  0  0  0  0  0
   -0.3280    2.1590    1.1658 H   0  0  0  0  0  0  0  0  0  0  0  0
    2.0781   -1.9757    1.1205 H   0  0  0  0  0  0  0  0  0  0  0  0
    2.5140   -2.5218   -0.5172 H   0  0  0  0  0  0  0  0  0  0  0  0
   -2.4614    1.3271    0.8171 H   0  0  0  0  0  0  0  0  0  0  0  0
   -2.3552    1.6582   -0.8781 H   0  0  0  0  0  0  0  0  0  0  0  0
    2.1975    2.9144    0.3170 H   0  0  0  0  0  0  0  0  0  0  0  0
    2.3786    2.1572   -1.2793 H   0  0  0  0  0  0  0  0  0  0  0  0
   -0.8309    0.0834    2.2227 H   0  0  0  0  0  0  0  0  0  0  0  0
    0.7007   -0.7574    2.2069 H   0  0  0  0  0  0  0  0  0  0  0  0
   -0.7907   -1.6557    2.0590 H   0  0  0  0  0  0  0  0  0  0  0  0
   -2.8819   -1.0261    1.2306 H   0  0  0  0  0  0  0  0  0  0  0  0
    4.9110   -1.1398   -1.5836 H   0  0  0  0  0  0  0  0  0  0  0  0
    4.7817   -2.3598   -0.2873 H   0  0  0  0  0  0  0  0  0  0  0  0
    4.5711    3.0030   -0.2056 H   0  0  0  0  0  0  0  0  0  0  0  0
    3.7540   -0.1359    2.3981 H   0  0  0  0  0  0  0  0  0  0  0  0
    5.3553   -0.7794    2.1240 H   0  0  0  0  0  0  0  0  0  0  0  0
    3.9549   -1.8042    1.9188 H   0  0  0  0  0  0  0  0  0  0  0  0
    6.5836    1.0644    1.3819 H   0  0  0  0  0  0  0  0  0  0  0  0
    6.6265    2.1350   -0.0110 H   0  0  0  0  0  0  0  0  0  0  0  0
    7.0960   -1.9244   -1.0178 H   0  0  0  0  0  0  0  0  0  0  0  0
    6.7979   -1.6457    0.6865 H   0  0  0  0  0  0  0  0  0  0  0  0
   -2.6290   -2.8501   -1.1472 H   0  0  0  0  0  0  0  0  0  0  0  0
   -3.5013   -3.2093    0.3236 H   0  0  0  0  0  0  0  0  0  0  0  0
   -1.7649   -3.0187    0.3621 H   0  0  0  0  0  0  0  0  0  0  0  0
   -4.1665   -0.7471   -1.5297 H   0  0  0  0  0  0  0  0  0  0  0  0
   -5.1691   -0.2953    1.2028 H   0  0  0  0  0  0  0  0  0  0  0  0
   -6.3656    0.0008   -1.5494 H   0  0  0  0  0  0  0  0  0  0  0  0
   -7.7952    1.7365   -0.7397 H   0  0  0  0  0  0  0  0  0  0  0  0
   -8.5815   -0.4432   -0.4608 H   0  0  0  0  0  0  0  0  0  0  0  0
   -7.6716   -0.8680    1.0021 H   0  0  0  0  0  0  0  0  0  0  0  0
   -4.8700    2.3798   -0.3280 H   0  0  0  0  0  0  0  0  0  0  0  0
   -6.1147    3.5447   -0.7112 H   0  0  0  0  0  0  0  0  0  0  0  0
   -5.6806    2.3154   -1.8746 H   0  0  0  0  0  0  0  0  0  0  0  0
   -6.1805    1.8191    1.7792 H   0  0  0  0  0  0  0  0  0  0  0  0
   -7.8454    1.3070    1.6414 H   0  0  0  0  0  0  0  0  0  0  0  0
   -7.4115    2.9665    1.3088 H   0  0  0  0  0  0  0  0  0  0  0  0
   -7.4888   -2.2733   -1.6351 H   0  0  0  0  0  0  0  0  0  0  0  0
   -8.3118   -2.8651   -0.2118 H   0  0  0  0  0  0  0  0  0  0  0  0
   -6.5760   -2.6657   -0.1978 H   0  0  0  0  0  0  0  0  0  0  0  0
  1 23  2  0  0  0  0
  2  3  1  0  0  0  0
  2  6  1  0  0  0  0
  2  7  1  0  0  0  0
  2 13  1  1  0  0  0
  3  4  1  0  0  0  0
  3  8  1  0  0  0  0
  3 31  1  6  0  0  0
  4  5  1  0  0  0  0
  4 12  1  0  0  0  0
  4 32  1  1  0  0  0
  5  9  1  0  0  0  0
  5 10  1  0  0  0  0
  5 33  1  6  0  0  0
  6 11  1  0  0  0  0
  6 14  1  0  0  0  0
  6 34  1  6  0  0  0
  7 10  1  0  0  0  0
  7 35  1  0  0  0  0
  7 36  1  0  0  0  0
  8 11  1  0  0  0  0
  8 37  1  0  0  0  0
  8 38  1  0  0  0  0
  9 15  1  0  0  0  0
  9 16  1  0  0  0  0
  9 18  1  1  0  0  0
 10 39  1  0  0  0  0
 10 40  1  0  0  0  0
 11 41  1  0  0  0  0
 11 42  1  0  0  0  0
 12 17  1  0  0  0  0
 12 43  1  0  0  0  0
 12 44  1  0  0  0  0
 13 45  1  0  0  0  0
 13 46  1  0  0  0  0
 13 47  1  0  0  0  0
 14 21  1  0  0  0  0
 14 22  1  0  0  0  0
 14 48  1  1  0  0  0
 15 17  2  0  0  0  0
 15 19  1  0  0  0  0
 16 20  1  0  0  0  0
 16 49  1  0  0  0  0
 16 50  1  0  0  0  0
 17 51  1  0  0  0  0
 18 52  1  0  0  0  0
 18 53  1  0  0  0  0
 18 54  1  0  0  0  0
 19 23  1  0  0  0  0
 19 55  1  0  0  0  0
 19 56  1  0  0  0  0
 20 23  1  0  0  0  0
 20 57  1  0  0  0  0
 20 58  1  0  0  0  0
 21 59  1  0  0  0  0
 21 60  1  0  0  0  0
 21 61  1  0  0  0  0
 22 24  2  0  0  0  0
 22 62  1  0  0  0  0
 24 25  1  0  0  0  0
 24 63  1  0  0  0  0
 25 26  1  0  0  0  0
 25 27  1  0  0  0  0
 25 64  1  6  0  0  0
 26 28  1  0  0  0  0
 26 29  1  0  0  0  0
 26 65  1  0  0  0  0
 27 30  1  0  0  0  0
 27 66  1  0  0  0  0
 27 67  1  0  0  0  0
 28 68  1  0  0  0  0
 28 69  1  0  0  0  0
 28 70  1  0  0  0  0
 29 71  1  0  0  0  0
 29 72  1  0  0  0  0
 29 73  1  0  0  0  0
 30 74  1  0  0  0  0
 30 75  1  0  0  0  0
 30 76  1  0  0  0  0
M  END
>  <PUBCHEM_COMPOUND_CID>
14807783

>  <PUBCHEM_CONFORMER_RMSD>
0.8

>  <PUBCHEM_CONFORMER_DIVERSEORDER>
1
20
24
30
27
19
22
13
10
28
14
18
15
26
29
25
23
5
2
21
6
4
12
16
7
11
3
8
9
17

>  <PUBCHEM_MMFF94_PARTIAL_CHARGES>
15
1 -0.57
12 0.14
14 0.14
15 -0.28
17 -0.29
19 0.2
20 0.06
22 -0.29
23 0.45
24 -0.29
25 0.14
51 0.15
62 0.15
63 0.15
9 0.14

>  <PUBCHEM_EFFECTIVE_ROTOR_COUNT>
6.8

>  <PUBCHEM_PHARMACOPHORE_FEATURES>
9
1 1 acceptor
1 21 hydrophobe
1 30 hydrophobe
3 26 28 29 hydrophobe
4 24 25 26 27 hydrophobe
5 2 3 6 8 11 rings
6 2 3 4 5 7 10 rings
6 4 5 9 12 15 17 rings
6 9 15 16 19 20 23 rings

>  <PUBCHEM_HEAVY_ATOM_COUNT>
30

>  <PUBCHEM_ATOM_DEF_STEREO_COUNT>
8

>  <PUBCHEM_ATOM_UDEF_STEREO_COUNT>
0

>  <PUBCHEM_BOND_DEF_STEREO_COUNT>
1

>  <PUBCHEM_BOND_UDEF_STEREO_COUNT>
0

>  <PUBCHEM_ISOTOPIC_ATOM_COUNT>
0

>  <PUBCHEM_COMPONENT_COUNT>
1

>  <PUBCHEM_CACTVS_TAUTO_COUNT>
5

>  <PUBCHEM_CONFORMER_ID>
00E1F2E700000001

>  <PUBCHEM_MMFF94_ENERGY>
82.7022

>  <PUBCHEM_FEATURE_SELFOVERLAP>
46.045

>  <PUBCHEM_SHAPE_FINGERPRINT>
10 15 18113622249416362449
10050765 1 18122905597054689687
100830 39 18411699860138439653
10299344 5 18410012143695250663
10906281 52 18410022026404702515
11578080 2 17200774873157965616
11719270 70 18131348600657816559
12236239 1 18202002131769390139
13533116 47 16056886793187574166
13811026 1 18410008874924451723
14251764 18 18187080667773978931
14294032 229 18115309947345235540
14790565 3 18409729548080456157
14856354 85 17275097363203595413
14933364 13 18409166606331756757
15021287 119 17530968003826796357
15131766 46 15193283219318982696
15183329 4 18408879625507568393
15461852 350 17275094039099387653
1577012 14 18334571318251032851
15849732 13 18272931643962247943
16087824 20 18410857616334483781
18608769 82 18408882906456855645
18681886 176 18342451569062532137
19611394 137 17897457301438783323
21033648 29 18271511088177549624
21130935 74 18342454829275714131
21267235 1 18411985775272070743
21315763 28 18411135857717090159
21792934 111 18341320112449099520
221357 26 18412826881057685056
23559900 14 18339076103299984936
249057 3 18341612654712759782
255183 451 17983863281475172838
3004659 81 18335136514061016544
335352 9 18410856589720456830
350125 39 18409728439367159060
3633792 109 17775012240945650578
397830 11 14707786133307081861
4073 2 17969224597677357810
4098825 35 18412261735964395535
5104073 3 18261949747482984019
59755656 215 18411419492856525094
59755656 520 17240199949963059011
6086070 43 17418087750040126513
6328613 192 18413671318524728441
7226269 152 18201719527464532089
9996256 80 18408036334622882509

>  <PUBCHEM_SHAPE_MULTIPOLES>
611.52
22.4
2.53
1.02
11.14
0.24
-0.38
1.97
2.91
2.51
0.22
-0.26
-0.03
-0.43

>  <PUBCHEM_SHAPE_SELFOVERLAP>
1270.732

>  <PUBCHEM_SHAPE_VOLUME>
348.1

>  <PUBCHEM_COORDINATE_TYPE>
2
5
10

>  <Energy>
104.863

$$$$
